15 
# or13: geometry number 1. O4-N9 distance: 10 
C       0.00000000     0.00000000     0.00000000
C       1.50168242     0.00000000     0.00000000
O       1.99935600     1.26165693     0.00000000
O       2.21003264    -0.97201393     0.00007510
H       2.96637189     1.18264570     0.00005633
H      -0.36991305     0.52964945     0.87921567
H      -0.36994767     0.52996114    -0.87901137
H      -0.36380470    -1.02331506    -0.00015939
N       8.05669272    -9.07473860    -0.40293703
H       8.88755857    -8.77708687    -0.90047565
H       7.55882253    -9.70915224    -1.01627899
C       8.41433639    -9.74023967     0.84981292
H       7.50281028   -10.03858059     1.37091480
H       8.93831649    -9.03303038     1.49534219
H       9.04806061   -10.63164801     0.74143757
15 
# or13: geometry number 2. O4-N9 distance: 8 
C       0.00000000     0.00000000     0.00000000
C       1.50168242     0.00000000     0.00000000
O       1.99935600     1.26165693     0.00000000
O       2.21003264    -0.97201393     0.00007510
H       2.96637189     1.18264570     0.00005633
H      -0.36991305     0.52964945     0.87921567
H      -0.36994767     0.52996114    -0.87901137
H      -0.36380470    -1.02331506    -0.00015939
N       6.88736071    -7.45419367    -0.32233460
H       7.71822656    -7.15654194    -0.81987322
H       6.38949052    -8.08860731    -0.93567656
C       7.24500438    -8.11969474     0.93041535
H       6.33347827    -8.41803566     1.45151723
H       7.76898448    -7.41248545     1.57594462
H       7.87872860    -9.01110308     0.82204000
15 
# or13: geometry number 3. O4-N9 distance: 6 
C       0.00000000     0.00000000     0.00000000
C       1.50168242     0.00000000     0.00000000
O       1.99935600     1.26165693     0.00000000
O       2.21003264    -0.97201393     0.00007510
H       2.96637189     1.18264570     0.00005633
H      -0.36991305     0.52964945     0.87921567
H      -0.36994767     0.52996114    -0.87901137
H      -0.36380470    -1.02331506    -0.00015939
N       5.71802869    -5.83364873    -0.24173218
H       6.54889454    -5.53599700    -0.73927080
H       5.22015850    -6.46806237    -0.85507414
C       6.07567236    -6.49914980     1.01101777
H       5.16414625    -6.79749072     1.53211965
H       6.59965246    -5.79194051     1.65654704
H       6.70939658    -7.39055814     0.90264242
15 
# or13: geometry number 4. O4-N9 distance: 5 
C       0.00000000     0.00000000     0.00000000
C       1.50168242     0.00000000     0.00000000
O       1.99935600     1.26165693     0.00000000
O       2.21003264    -0.97201393     0.00007510
H       2.96637189     1.18264570     0.00005633
H      -0.36991305     0.52964945     0.87921567
H      -0.36994767     0.52996114    -0.87901137
H      -0.36380470    -1.02331506    -0.00015939
N       5.13336268    -5.02337627    -0.20143096
H       5.96422853    -4.72572454    -0.69896958
H       4.63549249    -5.65778991    -0.81477292
C       5.49100635    -5.68887734     1.05131899
H       4.57948024    -5.98721826     1.57242087
H       6.01498645    -4.98166805     1.69684826
H       6.12473057    -6.58028568     0.94294364
15 
# or13: geometry number 5. O4-N9 distance: 4.7 
C       0.00000000     0.00000000     0.00000000
C       1.50168242     0.00000000     0.00000000
O       1.99935600     1.26165693     0.00000000
O       2.21003264    -0.97201393     0.00007510
H       2.96637189     1.18264570     0.00005633
H      -0.36991305     0.52964945     0.87921567
H      -0.36994767     0.52996114    -0.87901137
H      -0.36380470    -1.02331506    -0.00015939
N       4.95796288    -4.78029453    -0.18934060
H       5.78882873    -4.48264280    -0.68687922
H       4.46009269    -5.41470817    -0.80268256
C       5.31560655    -5.44579560     1.06340935
H       4.40408044    -5.74413652     1.58451123
H       5.83958665    -4.73858631     1.70893862
H       5.94933077    -6.33720394     0.95503400
15 
# or13: geometry number 6. O4-N9 distance: 4.4 
C       0.00000000     0.00000000     0.00000000
C       1.50168242     0.00000000     0.00000000
O       1.99935600     1.26165693     0.00000000
O       2.21003264    -0.97201393     0.00007510
H       2.96637189     1.18264570     0.00005633
H      -0.36991305     0.52964945     0.87921567
H      -0.36994767     0.52996114    -0.87901137
H      -0.36380470    -1.02331506    -0.00015939
N       4.78256308    -4.53721279    -0.17725024
H       5.61342893    -4.23956106    -0.67478886
H       4.28469289    -5.17162643    -0.79059220
C       5.14020675    -5.20271386     1.07549971
H       4.22868064    -5.50105478     1.59660159
H       5.66418685    -4.49550457     1.72102898
H       5.77393097    -6.09412220     0.96712436
15 
# or13: geometry number 7. O4-N9 distance: 4.2 
C       0.00000000     0.00000000     0.00000000
C       1.50168242     0.00000000     0.00000000
O       1.99935600     1.26165693     0.00000000
O       2.21003264    -0.97201393     0.00007510
H       2.96637189     1.18264570     0.00005633
H      -0.36991305     0.52964945     0.87921567
H      -0.36994767     0.52996114    -0.87901137
H      -0.36380470    -1.02331506    -0.00015939
N       4.66562988    -4.37515829    -0.16918999
H       5.49649573    -4.07750656    -0.66672861
H       4.16775969    -5.00957193    -0.78253195
C       5.02327355    -5.04065936     1.08355996
H       4.11174744    -5.33900028     1.60466184
H       5.54725365    -4.33345007     1.72908923
H       5.65699777    -5.93206770     0.97518461
15 
# or13: geometry number 8. O4-N9 distance: 4 
C       0.00000000     0.00000000     0.00000000
C       1.50168242     0.00000000     0.00000000
O       1.99935600     1.26165693     0.00000000
O       2.21003264    -0.97201393     0.00007510
H       2.96637189     1.18264570     0.00005633
H      -0.36991305     0.52964945     0.87921567
H      -0.36994767     0.52996114    -0.87901137
H      -0.36380470    -1.02331506    -0.00015939
N       4.54869667    -4.21310380    -0.16112975
H       5.37956252    -3.91545207    -0.65866837
H       4.05082648    -4.84751744    -0.77447171
C       4.90634034    -4.87860487     1.09162020
H       3.99481423    -5.17694579     1.61272208
H       5.43032044    -4.17139558     1.73714947
H       5.54006456    -5.77001321     0.98324485
15 
# or13: geometry number 9. O4-N9 distance: 3.8 
C       0.00000000     0.00000000     0.00000000
C       1.50168242     0.00000000     0.00000000
O       1.99935600     1.26165693     0.00000000
O       2.21003264    -0.97201393     0.00007510
H       2.96637189     1.18264570     0.00005633
H      -0.36991305     0.52964945     0.87921567
H      -0.36994767     0.52996114    -0.87901137
H      -0.36380470    -1.02331506    -0.00015939
N       4.43176347    -4.05104930    -0.15306951
H       5.26262932    -3.75339757    -0.65060813
H       3.93389328    -4.68546294    -0.76641147
C       4.78940714    -4.71655037     1.09968044
H       3.87788103    -5.01489129     1.62078232
H       5.31338724    -4.00934108     1.74520971
H       5.42313136    -5.60795871     0.99130509
15 
# or13: geometry number 10. O4-N9 distance: 3.7 
C       0.00000000     0.00000000     0.00000000
C       1.50168242     0.00000000     0.00000000
O       1.99935600     1.26165693     0.00000000
O       2.21003264    -0.97201393     0.00007510
H       2.96637189     1.18264570     0.00005633
H      -0.36991305     0.52964945     0.87921567
H      -0.36994767     0.52996114    -0.87901137
H      -0.36380470    -1.02331506    -0.00015939
N       4.37329687    -3.97002206    -0.14903939
H       5.20416272    -3.67237033    -0.64657801
H       3.87542668    -4.60443570    -0.76238135
C       4.73094054    -4.63552313     1.10371056
H       3.81941443    -4.93386405     1.62481244
H       5.25492064    -3.92831384     1.74923983
H       5.36466476    -5.52693147     0.99533521
15 
# or13: geometry number 11. O4-N9 distance: 3.6 
C       0.00000000     0.00000000     0.00000000
C       1.50168242     0.00000000     0.00000000
O       1.99935600     1.26165693     0.00000000
O       2.21003264    -0.97201393     0.00007510
H       2.96637189     1.18264570     0.00005633
H      -0.36991305     0.52964945     0.87921567
H      -0.36994767     0.52996114    -0.87901137
H      -0.36380470    -1.02331506    -0.00015939
N       4.31483027    -3.88899481    -0.14500927
H       5.14569612    -3.59134308    -0.64254789
H       3.81696008    -4.52340845    -0.75835123
C       4.67247394    -4.55449588     1.10774068
H       3.76094783    -4.85283680     1.62884256
H       5.19645404    -3.84728659     1.75326995
H       5.30619816    -5.44590422     0.99936533
15 
# or13: geometry number 12. O4-N9 distance: 3.5 
C       0.00000000     0.00000000     0.00000000
C       1.50168242     0.00000000     0.00000000
O       1.99935600     1.26165693     0.00000000
O       2.21003264    -0.97201393     0.00007510
H       2.96637189     1.18264570     0.00005633
H      -0.36991305     0.52964945     0.87921567
H      -0.36994767     0.52996114    -0.87901137
H      -0.36380470    -1.02331506    -0.00015939
N       4.25636367    -3.80796756    -0.14097914
H       5.08722952    -3.51031583    -0.63851776
H       3.75849348    -4.44238120    -0.75432110
C       4.61400734    -4.47346863     1.11177081
H       3.70248123    -4.77180955     1.63287269
H       5.13798744    -3.76625934     1.75730008
H       5.24773156    -5.36487697     1.00339546
15 
# or13: geometry number 13. O4-N9 distance: 3.4 
C       0.00000000     0.00000000     0.00000000
C       1.50168242     0.00000000     0.00000000
O       1.99935600     1.26165693     0.00000000
O       2.21003264    -0.97201393     0.00007510
H       2.96637189     1.18264570     0.00005633
H      -0.36991305     0.52964945     0.87921567
H      -0.36994767     0.52996114    -0.87901137
H      -0.36380470    -1.02331506    -0.00015939
N       4.19789707    -3.72694032    -0.13694902
H       5.02876292    -3.42928859    -0.63448764
H       3.70002688    -4.36135396    -0.75029098
C       4.55554074    -4.39244139     1.11580093
H       3.64401463    -4.69078231     1.63690281
H       5.07952084    -3.68523210     1.76133020
H       5.18926496    -5.28384973     1.00742558
15 
# or13: geometry number 14. O4-N9 distance: 3.3 
C       0.00000000     0.00000000     0.00000000
C       1.50168242     0.00000000     0.00000000
O       1.99935600     1.26165693     0.00000000
O       2.21003264    -0.97201393     0.00007510
H       2.96637189     1.18264570     0.00005633
H      -0.36991305     0.52964945     0.87921567
H      -0.36994767     0.52996114    -0.87901137
H      -0.36380470    -1.02331506    -0.00015939
N       4.13943047    -3.64591307    -0.13291890
H       4.97029632    -3.34826134    -0.63045752
H       3.64156028    -4.28032671    -0.74626086
C       4.49707414    -4.31141414     1.11983105
H       3.58554803    -4.60975506     1.64093293
H       5.02105424    -3.60420485     1.76536032
H       5.13079836    -5.20282248     1.01145570
15 
# or13: geometry number 15. O4-N9 distance: 3.2 
C       0.00000000     0.00000000     0.00000000
C       1.50168242     0.00000000     0.00000000
O       1.99935600     1.26165693     0.00000000
O       2.21003264    -0.97201393     0.00007510
H       2.96637189     1.18264570     0.00005633
H      -0.36991305     0.52964945     0.87921567
H      -0.36994767     0.52996114    -0.87901137
H      -0.36380470    -1.02331506    -0.00015939
N       4.08096387    -3.56488582    -0.12888878
H       4.91182972    -3.26723409    -0.62642740
H       3.58309368    -4.19929946    -0.74223074
C       4.43860754    -4.23038689     1.12386117
H       3.52708143    -4.52872781     1.64496305
H       4.96258764    -3.52317760     1.76939044
H       5.07233176    -5.12179523     1.01548582
15 
# or13: geometry number 16. O4-N9 distance: 3.1 
C       0.00000000     0.00000000     0.00000000
C       1.50168242     0.00000000     0.00000000
O       1.99935600     1.26165693     0.00000000
O       2.21003264    -0.97201393     0.00007510
H       2.96637189     1.18264570     0.00005633
H      -0.36991305     0.52964945     0.87921567
H      -0.36994767     0.52996114    -0.87901137
H      -0.36380470    -1.02331506    -0.00015939
N       4.02249727    -3.48385858    -0.12485866
H       4.85336312    -3.18620685    -0.62239728
H       3.52462708    -4.11827222    -0.73820062
C       4.38014094    -4.14935965     1.12789129
H       3.46861483    -4.44770057     1.64899317
H       4.90412104    -3.44215036     1.77342056
H       5.01386516    -5.04076799     1.01951594
15 
# or13: geometry number 17. O4-N9 distance: 3 
C       0.00000000     0.00000000     0.00000000
C       1.50168242     0.00000000     0.00000000
O       1.99935600     1.26165693     0.00000000
O       2.21003264    -0.97201393     0.00007510
H       2.96637189     1.18264570     0.00005633
H      -0.36991305     0.52964945     0.87921567
H      -0.36994767     0.52996114    -0.87901137
H      -0.36380470    -1.02331506    -0.00015939
N       3.96403067    -3.40283133    -0.12082854
H       4.79489652    -3.10517960    -0.61836716
H       3.46616048    -4.03724497    -0.73417050
C       4.32167434    -4.06833240     1.13192141
H       3.41014823    -4.36667332     1.65302329
H       4.84565444    -3.36112311     1.77745068
H       4.95539856    -4.95974074     1.02354606
15 
# or13: geometry number 18. O4-N9 distance: 2.9 
C       0.00000000     0.00000000     0.00000000
C       1.50168242     0.00000000     0.00000000
O       1.99935600     1.26165693     0.00000000
O       2.21003264    -0.97201393     0.00007510
H       2.96637189     1.18264570     0.00005633
H      -0.36991305     0.52964945     0.87921567
H      -0.36994767     0.52996114    -0.87901137
H      -0.36380470    -1.02331506    -0.00015939
N       3.90556406    -3.32180408    -0.11679842
H       4.73642991    -3.02415235    -0.61433704
H       3.40769387    -3.95621772    -0.73014038
C       4.26320773    -3.98730515     1.13595153
H       3.35168162    -4.28564607     1.65705341
H       4.78718783    -3.28009586     1.78148080
H       4.89693195    -4.87871349     1.02757618
15 
# or13: geometry number 19. O4-N9 distance: 2.8 
C       0.00000000     0.00000000     0.00000000
C       1.50168242     0.00000000     0.00000000
O       1.99935600     1.26165693     0.00000000
O       2.21003264    -0.97201393     0.00007510
H       2.96637189     1.18264570     0.00005633
H      -0.36991305     0.52964945     0.87921567
H      -0.36994767     0.52996114    -0.87901137
H      -0.36380470    -1.02331506    -0.00015939
N       3.84709746    -3.24077684    -0.11276830
H       4.67796331    -2.94312511    -0.61030692
H       3.34922727    -3.87519048    -0.72611026
C       4.20474113    -3.90627791     1.13998165
H       3.29321502    -4.20461883     1.66108353
H       4.72872123    -3.19906862     1.78551092
H       4.83846535    -4.79768625     1.03160630
15 
# or13: geometry number 20. O4-N9 distance: 2.7 
C       0.00000000     0.00000000     0.00000000
C       1.50168242     0.00000000     0.00000000
O       1.99935600     1.26165693     0.00000000
O       2.21003264    -0.97201393     0.00007510
H       2.96637189     1.18264570     0.00005633
H      -0.36991305     0.52964945     0.87921567
H      -0.36994767     0.52996114    -0.87901137
H      -0.36380470    -1.02331506    -0.00015939
N       3.78863086    -3.15974959    -0.10873817
H       4.61949671    -2.86209786    -0.60627679
H       3.29076067    -3.79416323    -0.72208013
C       4.14627453    -3.82525066     1.14401178
H       3.23474842    -4.12359158     1.66511366
H       4.67025463    -3.11804137     1.78954105
H       4.77999875    -4.71665900     1.03563643
15 
# or13: geometry number 21. O4-N9 distance: 2.6 
C       0.00000000     0.00000000     0.00000000
C       1.50168242     0.00000000     0.00000000
O       1.99935600     1.26165693     0.00000000
O       2.21003264    -0.97201393     0.00007510
H       2.96637189     1.18264570     0.00005633
H      -0.36991305     0.52964945     0.87921567
H      -0.36994767     0.52996114    -0.87901137
H      -0.36380470    -1.02331506    -0.00015939
N       3.73016426    -3.07872234    -0.10470805
H       4.56103011    -2.78107061    -0.60224667
H       3.23229407    -3.71313598    -0.71805001
C       4.08780793    -3.74422341     1.14804190
H       3.17628182    -4.04256433     1.66914378
H       4.61178803    -3.03701412     1.79357117
H       4.72153215    -4.63563175     1.03966655
15 
# or13: geometry number 22. O4-N9 distance: 2.55 
C       0.00000000     0.00000000     0.00000000
C       1.50168242     0.00000000     0.00000000
O       1.99935600     1.26165693     0.00000000
O       2.21003264    -0.97201393     0.00007510
H       2.96637189     1.18264570     0.00005633
H      -0.36991305     0.52964945     0.87921567
H      -0.36994767     0.52996114    -0.87901137
H      -0.36380470    -1.02331506    -0.00015939
N       3.70093096    -3.03820872    -0.10269299
H       4.53179681    -2.74055699    -0.60023161
H       3.20306077    -3.67262236    -0.71603495
C       4.05857463    -3.70370979     1.15005696
H       3.14704852    -4.00205071     1.67115884
H       4.58255473    -2.99650050     1.79558623
H       4.69229885    -4.59511813     1.04168161
15 
# or13: geometry number 23. O4-N9 distance: 2.5 
C       0.00000000     0.00000000     0.00000000
C       1.50168242     0.00000000     0.00000000
O       1.99935600     1.26165693     0.00000000
O       2.21003264    -0.97201393     0.00007510
H       2.96637189     1.18264570     0.00005633
H      -0.36991305     0.52964945     0.87921567
H      -0.36994767     0.52996114    -0.87901137
H      -0.36380470    -1.02331506    -0.00015939
N       3.67169766    -2.99769510    -0.10067793
H       4.50256351    -2.70004337    -0.59821655
H       3.17382747    -3.63210874    -0.71401989
C       4.02934133    -3.66319617     1.15207202
H       3.11781522    -3.96153709     1.67317390
H       4.55332143    -2.95598688     1.79760129
H       4.66306555    -4.55460451     1.04369667
15 
# or13: geometry number 24. O4-N9 distance: 2.45 
C       0.00000000     0.00000000     0.00000000
C       1.50168242     0.00000000     0.00000000
O       1.99935600     1.26165693     0.00000000
O       2.21003264    -0.97201393     0.00007510
H       2.96637189     1.18264570     0.00005633
H      -0.36991305     0.52964945     0.87921567
H      -0.36994767     0.52996114    -0.87901137
H      -0.36380470    -1.02331506    -0.00015939
N       3.64246436    -2.95718147    -0.09866287
H       4.47333021    -2.65952974    -0.59620149
H       3.14459417    -3.59159511    -0.71200483
C       4.00010803    -3.62268254     1.15408708
H       3.08858192    -3.92102346     1.67518896
H       4.52408813    -2.91547325     1.79961635
H       4.63383225    -4.51409088     1.04571173
15 
# or13: geometry number 25. O4-N9 distance: 2.4 
C       0.00000000     0.00000000     0.00000000
C       1.50168242     0.00000000     0.00000000
O       1.99935600     1.26165693     0.00000000
O       2.21003264    -0.97201393     0.00007510
H       2.96637189     1.18264570     0.00005633
H      -0.36991305     0.52964945     0.87921567
H      -0.36994767     0.52996114    -0.87901137
H      -0.36380470    -1.02331506    -0.00015939
N       3.61323106    -2.91666785    -0.09664781
H       4.44409691    -2.61901612    -0.59418643
H       3.11536087    -3.55108149    -0.70998977
C       3.97087473    -3.58216892     1.15610214
H       3.05934862    -3.88050984     1.67720402
H       4.49485483    -2.87495963     1.80163141
H       4.60459895    -4.47357726     1.04772679
15 
# or13: geometry number 26. O4-N9 distance: 2.35 
C       0.00000000     0.00000000     0.00000000
C       1.50168242     0.00000000     0.00000000
O       1.99935600     1.26165693     0.00000000
O       2.21003264    -0.97201393     0.00007510
H       2.96637189     1.18264570     0.00005633
H      -0.36991305     0.52964945     0.87921567
H      -0.36994767     0.52996114    -0.87901137
H      -0.36380470    -1.02331506    -0.00015939
N       3.58399776    -2.87615423    -0.09463275
H       4.41486361    -2.57850250    -0.59217137
H       3.08612757    -3.51056787    -0.70797471
C       3.94164143    -3.54165530     1.15811720
H       3.03011532    -3.83999622     1.67921908
H       4.46562153    -2.83444601     1.80364647
H       4.57536565    -4.43306364     1.04974185
15 
# or13: geometry number 27. O4-N9 distance: 2.3 
C       0.00000000     0.00000000     0.00000000
C       1.50168242     0.00000000     0.00000000
O       1.99935600     1.26165693     0.00000000
O       2.21003264    -0.97201393     0.00007510
H       2.96637189     1.18264570     0.00005633
H      -0.36991305     0.52964945     0.87921567
H      -0.36994767     0.52996114    -0.87901137
H      -0.36380470    -1.02331506    -0.00015939
N       3.55476446    -2.83564060    -0.09261769
H       4.38563031    -2.53798887    -0.59015631
H       3.05689427    -3.47005424    -0.70595965
C       3.91240813    -3.50114167     1.16013226
H       3.00088202    -3.79948259     1.68123414
H       4.43638823    -2.79393238     1.80566153
H       4.54613235    -4.39255001     1.05175691
15 
# or13: geometry number 28. O4-N9 distance: 2.25 
C       0.00000000     0.00000000     0.00000000
C       1.50168242     0.00000000     0.00000000
O       1.99935600     1.26165693     0.00000000
O       2.21003264    -0.97201393     0.00007510
H       2.96637189     1.18264570     0.00005633
H      -0.36991305     0.52964945     0.87921567
H      -0.36994767     0.52996114    -0.87901137
H      -0.36380470    -1.02331506    -0.00015939
N       3.52553116    -2.79512698    -0.09060263
H       4.35639701    -2.49747525    -0.58814125
H       3.02766097    -3.42954062    -0.70394459
C       3.88317483    -3.46062805     1.16214732
H       2.97164872    -3.75896897     1.68324920
H       4.40715493    -2.75341876     1.80767659
H       4.51689905    -4.35203639     1.05377197
15 
# or13: geometry number 29. O4-N9 distance: 2.2 
C       0.00000000     0.00000000     0.00000000
C       1.50168242     0.00000000     0.00000000
O       1.99935600     1.26165693     0.00000000
O       2.21003264    -0.97201393     0.00007510
H       2.96637189     1.18264570     0.00005633
H      -0.36991305     0.52964945     0.87921567
H      -0.36994767     0.52996114    -0.87901137
H      -0.36380470    -1.02331506    -0.00015939
N       3.49629786    -2.75461336    -0.08858757
H       4.32716371    -2.45696163    -0.58612619
H       2.99842767    -3.38902700    -0.70192953
C       3.85394153    -3.42011443     1.16416238
H       2.94241542    -3.71845535     1.68526426
H       4.37792163    -2.71290514     1.80969165
H       4.48766575    -4.31152277     1.05578703
