15 
# or18: geometry number 1. H5-H10 distance: 10 
C       0.00000000     0.00000000     0.00000000
C       1.50168242     0.00000000     0.00000000
O       1.99935600     1.26165693     0.00000000
O       2.21003264    -0.97201393     0.00007510
H       2.96637189     1.18264570     0.00005633
H      -0.36991305     0.52964945     0.87921567
H      -0.36994767     0.52996114    -0.87901137
H      -0.36380470    -1.02331506    -0.00015939
N      13.89639959    -0.14012666     0.07725976
H      12.88490900    -0.09029009     0.04755466
H      14.19665272    -0.53811319    -0.80478250
C      14.47460055     1.19006237     0.26821501
H      15.56213426     1.10636684     0.30944378
H      14.14512240     1.59040123     1.22872586
H      14.22209781     1.92560816    -0.50842853
15 
# or18: geometry number 2. H5-H10 distance: 8 
C       0.00000000     0.00000000     0.00000000
C       1.50168242     0.00000000     0.00000000
O       1.99935600     1.26165693     0.00000000
O       2.21003264    -0.97201393     0.00007510
H       2.96637189     1.18264570     0.00005633
H      -0.36991305     0.52964945     0.87921567
H      -0.36994767     0.52996114    -0.87901137
H      -0.36380470    -1.02331506    -0.00015939
N      11.91269217     0.11446050     0.06776010
H      10.90120158     0.16429707     0.03805500
H      12.21294530    -0.28352603    -0.81428216
C      12.49089313     1.44464953     0.25871535
H      13.57842684     1.36095400     0.29994412
H      12.16141498     1.84498839     1.21922620
H      12.23839039     2.18019532    -0.51792819
15 
# or18: geometry number 3. H5-H10 distance: 6 
C       0.00000000     0.00000000     0.00000000
C       1.50168242     0.00000000     0.00000000
O       1.99935600     1.26165693     0.00000000
O       2.21003264    -0.97201393     0.00007510
H       2.96637189     1.18264570     0.00005633
H      -0.36991305     0.52964945     0.87921567
H      -0.36994767     0.52996114    -0.87901137
H      -0.36380470    -1.02331506    -0.00015939
N       9.92898475     0.36904766     0.05826043
H       8.91749416     0.41888423     0.02855533
H      10.22923788    -0.02893887    -0.82378183
C      10.50718571     1.69923669     0.24921568
H      11.59471942     1.61554116     0.29044445
H      10.17770756     2.09957555     1.20972653
H      10.25468297     2.43478248    -0.52742786
15 
# or18: geometry number 4. H5-H10 distance: 5 
C       0.00000000     0.00000000     0.00000000
C       1.50168242     0.00000000     0.00000000
O       1.99935600     1.26165693     0.00000000
O       2.21003264    -0.97201393     0.00007510
H       2.96637189     1.18264570     0.00005633
H      -0.36991305     0.52964945     0.87921567
H      -0.36994767     0.52996114    -0.87901137
H      -0.36380470    -1.02331506    -0.00015939
N       8.93713103     0.49634124     0.05351060
H       7.92564044     0.54617781     0.02380550
H       9.23738416     0.09835471    -0.82853166
C       9.51533199     1.82653027     0.24446585
H      10.60286570     1.74283474     0.28569462
H       9.18585384     2.22686913     1.20497670
H       9.26282925     2.56207606    -0.53217769
15 
# or18: geometry number 5. H5-H10 distance: 4.5 
C       0.00000000     0.00000000     0.00000000
C       1.50168242     0.00000000     0.00000000
O       1.99935600     1.26165693     0.00000000
O       2.21003264    -0.97201393     0.00007510
H       2.96637189     1.18264570     0.00005633
H      -0.36991305     0.52964945     0.87921567
H      -0.36994767     0.52996114    -0.87901137
H      -0.36380470    -1.02331506    -0.00015939
N       8.44120418     0.55998803     0.05113568
H       7.42971359     0.60982460     0.02143058
H       8.74145731     0.16200150    -0.83090658
C       9.01940514     1.89017706     0.24209093
H      10.10693885     1.80648153     0.28331970
H       8.68992699     2.29051592     1.20260178
H       8.76690240     2.62572285    -0.53455261
15 
# or18: geometry number 6. H5-H10 distance: 4 
C       0.00000000     0.00000000     0.00000000
C       1.50168242     0.00000000     0.00000000
O       1.99935600     1.26165693     0.00000000
O       2.21003264    -0.97201393     0.00007510
H       2.96637189     1.18264570     0.00005633
H      -0.36991305     0.52964945     0.87921567
H      -0.36994767     0.52996114    -0.87901137
H      -0.36380470    -1.02331506    -0.00015939
N       7.94527732     0.62363482     0.04876076
H       6.93378673     0.67347139     0.01905566
H       8.24553045     0.22564829    -0.83328150
C       8.52347828     1.95382385     0.23971601
H       9.61101199     1.87012832     0.28094478
H       8.19400013     2.35416271     1.20022686
H       8.27097554     2.68936964    -0.53692753
15 
# or18: geometry number 7. H5-H10 distance: 3.7 
C       0.00000000     0.00000000     0.00000000
C       1.50168242     0.00000000     0.00000000
O       1.99935600     1.26165693     0.00000000
O       2.21003264    -0.97201393     0.00007510
H       2.96637189     1.18264570     0.00005633
H      -0.36991305     0.52964945     0.87921567
H      -0.36994767     0.52996114    -0.87901137
H      -0.36380470    -1.02331506    -0.00015939
N       7.64772121     0.66182289     0.04733581
H       6.63623062     0.71165946     0.01763071
H       7.94797434     0.26383636    -0.83470645
C       8.22592217     1.99201192     0.23829106
H       9.31345588     1.90831639     0.27951983
H       7.89644402     2.39235078     1.19880191
H       7.97341943     2.72755771    -0.53835248
15 
# or18: geometry number 8. H5-H10 distance: 3.4 
C       0.00000000     0.00000000     0.00000000
C       1.50168242     0.00000000     0.00000000
O       1.99935600     1.26165693     0.00000000
O       2.21003264    -0.97201393     0.00007510
H       2.96637189     1.18264570     0.00005633
H      -0.36991305     0.52964945     0.87921567
H      -0.36994767     0.52996114    -0.87901137
H      -0.36380470    -1.02331506    -0.00015939
N       7.35016510     0.70001096     0.04591086
H       6.33867451     0.74984753     0.01620576
H       7.65041823     0.30202443    -0.83613140
C       7.92836606     2.03019999     0.23686611
H       9.01589977     1.94650446     0.27809488
H       7.59888791     2.43053885     1.19737696
H       7.67586332     2.76574578    -0.53977743
15 
# or18: geometry number 9. H5-H10 distance: 3.1 
C       0.00000000     0.00000000     0.00000000
C       1.50168242     0.00000000     0.00000000
O       1.99935600     1.26165693     0.00000000
O       2.21003264    -0.97201393     0.00007510
H       2.96637189     1.18264570     0.00005633
H      -0.36991305     0.52964945     0.87921567
H      -0.36994767     0.52996114    -0.87901137
H      -0.36380470    -1.02331506    -0.00015939
N       7.05260898     0.73819904     0.04448591
H       6.04111839     0.78803561     0.01478081
H       7.35286211     0.34021251    -0.83755635
C       7.63080994     2.06838807     0.23544116
H       8.71834365     1.98469254     0.27666993
H       7.30133179     2.46872693     1.19595201
H       7.37830720     2.80393386    -0.54120238
15 
# or18: geometry number 10. H5-H10 distance: 2.9 
C       0.00000000     0.00000000     0.00000000
C       1.50168242     0.00000000     0.00000000
O       1.99935600     1.26165693     0.00000000
O       2.21003264    -0.97201393     0.00007510
H       2.96637189     1.18264570     0.00005633
H      -0.36991305     0.52964945     0.87921567
H      -0.36994767     0.52996114    -0.87901137
H      -0.36380470    -1.02331506    -0.00015939
N       6.85423824     0.76365775     0.04353595
H       5.84274765     0.81349432     0.01383085
H       7.15449137     0.36567122    -0.83850631
C       7.43243920     2.09384678     0.23449120
H       8.51997291     2.01015125     0.27571997
H       7.10296105     2.49418564     1.19500205
H       7.17993646     2.82939257    -0.54215234
15 
# or18: geometry number 11. H5-H10 distance: 2.7 
C       0.00000000     0.00000000     0.00000000
C       1.50168242     0.00000000     0.00000000
O       1.99935600     1.26165693     0.00000000
O       2.21003264    -0.97201393     0.00007510
H       2.96637189     1.18264570     0.00005633
H      -0.36991305     0.52964945     0.87921567
H      -0.36994767     0.52996114    -0.87901137
H      -0.36380470    -1.02331506    -0.00015939
N       6.65586750     0.78911647     0.04258598
H       5.64437691     0.83895304     0.01288088
H       6.95612063     0.39112994    -0.83945628
C       7.23406846     2.11930550     0.23354123
H       8.32160217     2.03560997     0.27477000
H       6.90459031     2.51964436     1.19405208
H       6.98156572     2.85485129    -0.54310231
15 
# or18: geometry number 12. H5-H10 distance: 2.5 
C       0.00000000     0.00000000     0.00000000
C       1.50168242     0.00000000     0.00000000
O       1.99935600     1.26165693     0.00000000
O       2.21003264    -0.97201393     0.00007510
H       2.96637189     1.18264570     0.00005633
H      -0.36991305     0.52964945     0.87921567
H      -0.36994767     0.52996114    -0.87901137
H      -0.36380470    -1.02331506    -0.00015939
N       6.45749676     0.81457518     0.04163601
H       5.44600617     0.86441175     0.01193091
H       6.75774989     0.41658865    -0.84040625
C       7.03569772     2.14476421     0.23259126
H       8.12323143     2.06106868     0.27382003
H       6.70621957     2.54510307     1.19310211
H       6.78319498     2.88031000    -0.54405228
15 
# or18: geometry number 13. H5-H10 distance: 2.3 
C       0.00000000     0.00000000     0.00000000
C       1.50168242     0.00000000     0.00000000
O       1.99935600     1.26165693     0.00000000
O       2.21003264    -0.97201393     0.00007510
H       2.96637189     1.18264570     0.00005633
H      -0.36991305     0.52964945     0.87921567
H      -0.36994767     0.52996114    -0.87901137
H      -0.36380470    -1.02331506    -0.00015939
N       6.25912602     0.84003390     0.04068605
H       5.24763543     0.88987047     0.01098095
H       6.55937915     0.44204737    -0.84135621
C       6.83732698     2.17022293     0.23164130
H       7.92486069     2.08652740     0.27287007
H       6.50784883     2.57056179     1.19215215
H       6.58482424     2.90576872    -0.54500224
15 
# or18: geometry number 14. H5-H10 distance: 2.1 
C       0.00000000     0.00000000     0.00000000
C       1.50168242     0.00000000     0.00000000
O       1.99935600     1.26165693     0.00000000
O       2.21003264    -0.97201393     0.00007510
H       2.96637189     1.18264570     0.00005633
H      -0.36991305     0.52964945     0.87921567
H      -0.36994767     0.52996114    -0.87901137
H      -0.36380470    -1.02331506    -0.00015939
N       6.06075527     0.86549261     0.03973608
H       5.04926468     0.91532918     0.01003098
H       6.36100840     0.46750608    -0.84230618
C       6.63895623     2.19568164     0.23069133
H       7.72648994     2.11198611     0.27192010
H       6.30947808     2.59602050     1.19120218
H       6.38645349     2.93122743    -0.54595221
15 
# or18: geometry number 15. H5-H10 distance: 1.9 
C       0.00000000     0.00000000     0.00000000
C       1.50168242     0.00000000     0.00000000
O       1.99935600     1.26165693     0.00000000
O       2.21003264    -0.97201393     0.00007510
H       2.96637189     1.18264570     0.00005633
H      -0.36991305     0.52964945     0.87921567
H      -0.36994767     0.52996114    -0.87901137
H      -0.36380470    -1.02331506    -0.00015939
N       5.86238453     0.89095133     0.03878611
H       4.85089394     0.94078790     0.00908101
H       6.16263766     0.49296480    -0.84325615
C       6.44058549     2.22114036     0.22974136
H       7.52811920     2.13744483     0.27097013
H       6.11110734     2.62147922     1.19025221
H       6.18808275     2.95668615    -0.54690218
15 
# or18: geometry number 16. H5-H10 distance: 1.7 
C       0.00000000     0.00000000     0.00000000
C       1.50168242     0.00000000     0.00000000
O       1.99935600     1.26165693     0.00000000
O       2.21003264    -0.97201393     0.00007510
H       2.96637189     1.18264570     0.00005633
H      -0.36991305     0.52964945     0.87921567
H      -0.36994767     0.52996114    -0.87901137
H      -0.36380470    -1.02331506    -0.00015939
N       5.66401379     0.91641005     0.03783615
H       4.65252320     0.96624662     0.00813105
H       5.96426692     0.51842352    -0.84420611
C       6.24221475     2.24659908     0.22879140
H       7.32974846     2.16290355     0.27002017
H       5.91273660     2.64693794     1.18930225
H       5.98971201     2.98214487    -0.54785214
15 
# or18: geometry number 17. H5-H10 distance: 1.6 
C       0.00000000     0.00000000     0.00000000
C       1.50168242     0.00000000     0.00000000
O       1.99935600     1.26165693     0.00000000
O       2.21003264    -0.97201393     0.00007510
H       2.96637189     1.18264570     0.00005633
H      -0.36991305     0.52964945     0.87921567
H      -0.36994767     0.52996114    -0.87901137
H      -0.36380470    -1.02331506    -0.00015939
N       5.56482842     0.92913940     0.03736116
H       4.55333783     0.97897597     0.00765606
H       5.86508155     0.53115287    -0.84468110
C       6.14302938     2.25932843     0.22831641
H       7.23056309     2.17563290     0.26954518
H       5.81355123     2.65966729     1.18882726
H       5.89052664     2.99487422    -0.54832713
15 
# or18: geometry number 18. H5-H10 distance: 1.5 
C       0.00000000     0.00000000     0.00000000
C       1.50168242     0.00000000     0.00000000
O       1.99935600     1.26165693     0.00000000
O       2.21003264    -0.97201393     0.00007510
H       2.96637189     1.18264570     0.00005633
H      -0.36991305     0.52964945     0.87921567
H      -0.36994767     0.52996114    -0.87901137
H      -0.36380470    -1.02331506    -0.00015939
N       5.46564305     0.94186876     0.03688618
H       4.45415246     0.99170533     0.00718108
H       5.76589618     0.54388223    -0.84515608
C       6.04384401     2.27205779     0.22784143
H       7.13137772     2.18836226     0.26907020
H       5.71436586     2.67239665     1.18835228
H       5.79134127     3.00760358    -0.54880211
15 
# or18: geometry number 19. H5-H10 distance: 1.4 
C       0.00000000     0.00000000     0.00000000
C       1.50168242     0.00000000     0.00000000
O       1.99935600     1.26165693     0.00000000
O       2.21003264    -0.97201393     0.00007510
H       2.96637189     1.18264570     0.00005633
H      -0.36991305     0.52964945     0.87921567
H      -0.36994767     0.52996114    -0.87901137
H      -0.36380470    -1.02331506    -0.00015939
N       5.36645768     0.95459812     0.03641120
H       4.35496709     1.00443469     0.00670610
H       5.66671081     0.55661159    -0.84563106
C       5.94465864     2.28478715     0.22736645
H       7.03219235     2.20109162     0.26859522
H       5.61518049     2.68512601     1.18787730
H       5.69215590     3.02033294    -0.54927709
15 
# or18: geometry number 20. H5-H10 distance: 1.35 
C       0.00000000     0.00000000     0.00000000
C       1.50168242     0.00000000     0.00000000
O       1.99935600     1.26165693     0.00000000
O       2.21003264    -0.97201393     0.00007510
H       2.96637189     1.18264570     0.00005633
H      -0.36991305     0.52964945     0.87921567
H      -0.36994767     0.52996114    -0.87901137
H      -0.36380470    -1.02331506    -0.00015939
N       5.31686499     0.96096280     0.03617371
H       4.30537440     1.01079937     0.00646861
H       5.61711812     0.56297627    -0.84586855
C       5.89506595     2.29115183     0.22712896
H       6.98259966     2.20745630     0.26835773
H       5.56558780     2.69149069     1.18763981
H       5.64256321     3.02669762    -0.54951458
15 
# or18: geometry number 21. H5-H10 distance: 1.3 
C       0.00000000     0.00000000     0.00000000
C       1.50168242     0.00000000     0.00000000
O       1.99935600     1.26165693     0.00000000
O       2.21003264    -0.97201393     0.00007510
H       2.96637189     1.18264570     0.00005633
H      -0.36991305     0.52964945     0.87921567
H      -0.36994767     0.52996114    -0.87901137
H      -0.36380470    -1.02331506    -0.00015939
N       5.26727230     0.96732748     0.03593621
H       4.25578171     1.01716405     0.00623111
H       5.56752543     0.56934095    -0.84610605
C       5.84547326     2.29751651     0.22689146
H       6.93300697     2.21382098     0.26812023
H       5.51599511     2.69785537     1.18740231
H       5.59297052     3.03306230    -0.54975208
15 
# or18: geometry number 22. H5-H10 distance: 1.25 
C       0.00000000     0.00000000     0.00000000
C       1.50168242     0.00000000     0.00000000
O       1.99935600     1.26165693     0.00000000
O       2.21003264    -0.97201393     0.00007510
H       2.96637189     1.18264570     0.00005633
H      -0.36991305     0.52964945     0.87921567
H      -0.36994767     0.52996114    -0.87901137
H      -0.36380470    -1.02331506    -0.00015939
N       5.21767962     0.97369216     0.03569872
H       4.20618903     1.02352873     0.00599362
H       5.51793275     0.57570563    -0.84634354
C       5.79588058     2.30388119     0.22665397
H       6.88341429     2.22018566     0.26788274
H       5.46640243     2.70422005     1.18716482
H       5.54337784     3.03942698    -0.54998957
15 
# or18: geometry number 23. H5-H10 distance: 1.2 
C       0.00000000     0.00000000     0.00000000
C       1.50168242     0.00000000     0.00000000
O       1.99935600     1.26165693     0.00000000
O       2.21003264    -0.97201393     0.00007510
H       2.96637189     1.18264570     0.00005633
H      -0.36991305     0.52964945     0.87921567
H      -0.36994767     0.52996114    -0.87901137
H      -0.36380470    -1.02331506    -0.00015939
N       5.16808693     0.98005684     0.03546123
H       4.15659634     1.02989341     0.00575613
H       5.46834006     0.58207031    -0.84658103
C       5.74628789     2.31024587     0.22641648
H       6.83382160     2.22655034     0.26764525
H       5.41680974     2.71058473     1.18692733
H       5.49378515     3.04579166    -0.55022706
15 
# or18: geometry number 24. H5-H10 distance: 1.15 
C       0.00000000     0.00000000     0.00000000
C       1.50168242     0.00000000     0.00000000
O       1.99935600     1.26165693     0.00000000
O       2.21003264    -0.97201393     0.00007510
H       2.96637189     1.18264570     0.00005633
H      -0.36991305     0.52964945     0.87921567
H      -0.36994767     0.52996114    -0.87901137
H      -0.36380470    -1.02331506    -0.00015939
N       5.11849425     0.98642151     0.03522374
H       4.10700366     1.03625808     0.00551864
H       5.41874738     0.58843498    -0.84681852
C       5.69669521     2.31661054     0.22617899
H       6.78422892     2.23291501     0.26740776
H       5.36721706     2.71694940     1.18668984
H       5.44419247     3.05215633    -0.55046455
15 
# or18: geometry number 25. H5-H10 distance: 1.1 
C       0.00000000     0.00000000     0.00000000
C       1.50168242     0.00000000     0.00000000
O       1.99935600     1.26165693     0.00000000
O       2.21003264    -0.97201393     0.00007510
H       2.96637189     1.18264570     0.00005633
H      -0.36991305     0.52964945     0.87921567
H      -0.36994767     0.52996114    -0.87901137
H      -0.36380470    -1.02331506    -0.00015939
N       5.06890156     0.99278619     0.03498625
H       4.05741097     1.04262276     0.00528115
H       5.36915469     0.59479966    -0.84705601
C       5.64710252     2.32297522     0.22594150
H       6.73463623     2.23927969     0.26717027
H       5.31762437     2.72331408     1.18645235
H       5.39459978     3.05852101    -0.55070204
15 
# or18: geometry number 26. H5-H10 distance: 1.05 
C       0.00000000     0.00000000     0.00000000
C       1.50168242     0.00000000     0.00000000
O       1.99935600     1.26165693     0.00000000
O       2.21003264    -0.97201393     0.00007510
H       2.96637189     1.18264570     0.00005633
H      -0.36991305     0.52964945     0.87921567
H      -0.36994767     0.52996114    -0.87901137
H      -0.36380470    -1.02331506    -0.00015939
N       5.01930888     0.99915087     0.03474876
H       4.00781829     1.04898744     0.00504366
H       5.31956201     0.60116434    -0.84729350
C       5.59750984     2.32933990     0.22570401
H       6.68504355     2.24564437     0.26693278
H       5.26803169     2.72967876     1.18621486
H       5.34500710     3.06488569    -0.55093953
15 
# or18: geometry number 27. H5-H10 distance: 1.0 
C       0.00000000     0.00000000     0.00000000
C       1.50168242     0.00000000     0.00000000
O       1.99935600     1.26165693     0.00000000
O       2.21003264    -0.97201393     0.00007510
H       2.96637189     1.18264570     0.00005633
H      -0.36991305     0.52964945     0.87921567
H      -0.36994767     0.52996114    -0.87901137
H      -0.36380470    -1.02331506    -0.00015939
N       4.96971619     1.00551555     0.03451126
H       3.95822560     1.05535212     0.00480616
H       5.26996932     0.60752902    -0.84753100
C       5.54791715     2.33570458     0.22546651
H       6.63545086     2.25200905     0.26669528
H       5.21843900     2.73604344     1.18597736
H       5.29541441     3.07125037    -0.55117703
