15 
# or20: geometry number 1. H5-H13 distance: 10 
C       0.00000000     0.00000000     0.00000000
C       1.50168242     0.00000000     0.00000000
O       1.99935600     1.26165693     0.00000000
O       2.21003264    -0.97201393     0.00007510
H       2.96637189     1.18264570     0.00005633
H      -0.36991305     0.52964945     0.87921567
H      -0.36994767     0.52996114    -0.87901137
H      -0.36380470    -1.02331506    -0.00015939
N      14.42268626     0.96174196     0.57165293
H      15.43236527     0.97142177     0.65492281
H      14.19447473     1.44645798    -0.28829686
C      13.91919264    -0.41147613     0.54084127
H      12.83053275    -0.39316243     0.46390899
H      14.16794290    -0.90641525     1.48135535
H      14.30492938    -1.03267931    -0.27969161
15 
# or20: geometry number 2. H5-H13 distance: 8 
C       0.00000000     0.00000000     0.00000000
C       1.50168242     0.00000000     0.00000000
O       1.99935600     1.26165693     0.00000000
O       2.21003264    -0.97201393     0.00007510
H       2.96637189     1.18264570     0.00005633
H      -0.36991305     0.52964945     0.87921567
H      -0.36994767     0.52996114    -0.87901137
H      -0.36380470    -1.02331506    -0.00015939
N      12.44985409     1.27690359     0.47888240
H      13.45953310     1.28658340     0.56215228
H      12.22164256     1.76161961    -0.38106739
C      11.94636047    -0.09631450     0.44807074
H      10.85770058    -0.07800080     0.37113846
H      12.19511073    -0.59125362     1.38858482
H      12.33209721    -0.71751768    -0.37246214
15 
# or20: geometry number 3. H5-H13 distance: 6 
C       0.00000000     0.00000000     0.00000000
C       1.50168242     0.00000000     0.00000000
O       1.99935600     1.26165693     0.00000000
O       2.21003264    -0.97201393     0.00007510
H       2.96637189     1.18264570     0.00005633
H      -0.36991305     0.52964945     0.87921567
H      -0.36994767     0.52996114    -0.87901137
H      -0.36380470    -1.02331506    -0.00015939
N      10.47702192     1.59206521     0.38611186
H      11.48670093     1.60174502     0.46938174
H      10.24881039     2.07678123    -0.47383793
C       9.97352830     0.21884712     0.35530020
H       8.88486841     0.23716082     0.27836792
H      10.22227856    -0.27609200     1.29581428
H      10.35926504    -0.40235606    -0.46523268
15 
# or20: geometry number 4. H5-H13 distance: 5 
C       0.00000000     0.00000000     0.00000000
C       1.50168242     0.00000000     0.00000000
O       1.99935600     1.26165693     0.00000000
O       2.21003264    -0.97201393     0.00007510
H       2.96637189     1.18264570     0.00005633
H      -0.36991305     0.52964945     0.87921567
H      -0.36994767     0.52996114    -0.87901137
H      -0.36380470    -1.02331506    -0.00015939
N       9.49060583     1.74964603     0.33972660
H      10.50028484     1.75932584     0.42299648
H       9.26239430     2.23436205    -0.52022319
C       8.98711221     0.37642794     0.30891494
H       7.89845232     0.39474164     0.23198266
H       9.23586247    -0.11851118     1.24942902
H       9.37284895    -0.24477524    -0.51161794
15 
# or20: geometry number 5. H5-H13 distance: 4.5 
C       0.00000000     0.00000000     0.00000000
C       1.50168242     0.00000000     0.00000000
O       1.99935600     1.26165693     0.00000000
O       2.21003264    -0.97201393     0.00007510
H       2.96637189     1.18264570     0.00005633
H      -0.36991305     0.52964945     0.87921567
H      -0.36994767     0.52996114    -0.87901137
H      -0.36380470    -1.02331506    -0.00015939
N       8.99739779     1.82843643     0.31653397
H      10.00707680     1.83811624     0.39980385
H       8.76918626     2.31315245    -0.54341582
C       8.49390417     0.45521834     0.28572231
H       7.40524428     0.47353204     0.20879003
H       8.74265443    -0.03972078     1.22623639
H       8.87964091    -0.16598484    -0.53481057
15 
# or20: geometry number 6. H5-H13 distance: 4 
C       0.00000000     0.00000000     0.00000000
C       1.50168242     0.00000000     0.00000000
O       1.99935600     1.26165693     0.00000000
O       2.21003264    -0.97201393     0.00007510
H       2.96637189     1.18264570     0.00005633
H      -0.36991305     0.52964945     0.87921567
H      -0.36994767     0.52996114    -0.87901137
H      -0.36380470    -1.02331506    -0.00015939
N       8.50418974     1.90722684     0.29334133
H       9.51386875     1.91690665     0.37661121
H       8.27597821     2.39194286    -0.56660846
C       8.00069612     0.53400875     0.26252967
H       6.91203623     0.55232245     0.18559739
H       8.24944638     0.03906963     1.20304375
H       8.38643286    -0.08719443    -0.55800321
15 
# or20: geometry number 7. H5-H13 distance: 3.7 
C       0.00000000     0.00000000     0.00000000
C       1.50168242     0.00000000     0.00000000
O       1.99935600     1.26165693     0.00000000
O       2.21003264    -0.97201393     0.00007510
H       2.96637189     1.18264570     0.00005633
H      -0.36991305     0.52964945     0.87921567
H      -0.36994767     0.52996114    -0.87901137
H      -0.36380470    -1.02331506    -0.00015939
N       8.20826492     1.95450108     0.27942575
H       9.21794393     1.96418089     0.36269563
H       7.98005339     2.43921710    -0.58052404
C       7.70477130     0.58128299     0.24861409
H       6.61611141     0.59959669     0.17168181
H       7.95352156     0.08634387     1.18912817
H       8.09050804    -0.03992019    -0.57191879
15 
# or20: geometry number 8. H5-H13 distance: 3.4 
C       0.00000000     0.00000000     0.00000000
C       1.50168242     0.00000000     0.00000000
O       1.99935600     1.26165693     0.00000000
O       2.21003264    -0.97201393     0.00007510
H       2.96637189     1.18264570     0.00005633
H      -0.36991305     0.52964945     0.87921567
H      -0.36994767     0.52996114    -0.87901137
H      -0.36380470    -1.02331506    -0.00015939
N       7.91234009     2.00177533     0.26551017
H       8.92201910     2.01145514     0.34878005
H       7.68412856     2.48649135    -0.59443962
C       7.40884647     0.62855724     0.23469851
H       6.32018658     0.64687094     0.15776623
H       7.65759673     0.13361812     1.17521259
H       7.79458321     0.00735406    -0.58583437
15 
# or20: geometry number 9. H5-H13 distance: 3.1 
C       0.00000000     0.00000000     0.00000000
C       1.50168242     0.00000000     0.00000000
O       1.99935600     1.26165693     0.00000000
O       2.21003264    -0.97201393     0.00007510
H       2.96637189     1.18264570     0.00005633
H      -0.36991305     0.52964945     0.87921567
H      -0.36994767     0.52996114    -0.87901137
H      -0.36380470    -1.02331506    -0.00015939
N       7.61641527     2.04904957     0.25159459
H       8.62609428     2.05872938     0.33486447
H       7.38820374     2.53376559    -0.60835520
C       7.11292165     0.67583148     0.22078293
H       6.02426176     0.69414518     0.14385065
H       7.36167191     0.18089236     1.16129701
H       7.49865839     0.05462830    -0.59974995
15 
# or20: geometry number 10. H5-H13 distance: 2.9 
C       0.00000000     0.00000000     0.00000000
C       1.50168242     0.00000000     0.00000000
O       1.99935600     1.26165693     0.00000000
O       2.21003264    -0.97201393     0.00007510
H       2.96637189     1.18264570     0.00005633
H      -0.36991305     0.52964945     0.87921567
H      -0.36994767     0.52996114    -0.87901137
H      -0.36380470    -1.02331506    -0.00015939
N       7.41913205     2.08056573     0.24231754
H       8.42881106     2.09024554     0.32558742
H       7.19092052     2.56528175    -0.61763225
C       6.91563843     0.70734764     0.21150588
H       5.82697854     0.72566134     0.13457360
H       7.16438869     0.21240852     1.15201996
H       7.30137517     0.08614446    -0.60902700
15 
# or20: geometry number 11. H5-H13 distance: 2.6 
C       0.00000000     0.00000000     0.00000000
C       1.50168242     0.00000000     0.00000000
O       1.99935600     1.26165693     0.00000000
O       2.21003264    -0.97201393     0.00007510
H       2.96637189     1.18264570     0.00005633
H      -0.36991305     0.52964945     0.87921567
H      -0.36994767     0.52996114    -0.87901137
H      -0.36380470    -1.02331506    -0.00015939
N       7.12320722     2.12783998     0.22840196
H       8.13288623     2.13751979     0.31167184
H       6.89499569     2.61255600    -0.63154783
C       6.61971360     0.75462189     0.19759030
H       5.53105371     0.77293559     0.12065802
H       6.86846386     0.25968277     1.13810438
H       7.00545034     0.13341871    -0.62294258
15 
# or20: geometry number 12. H5-H13 distance: 2.4 
C       0.00000000     0.00000000     0.00000000
C       1.50168242     0.00000000     0.00000000
O       1.99935600     1.26165693     0.00000000
O       2.21003264    -0.97201393     0.00007510
H       2.96637189     1.18264570     0.00005633
H      -0.36991305     0.52964945     0.87921567
H      -0.36994767     0.52996114    -0.87901137
H      -0.36380470    -1.02331506    -0.00015939
N       6.92592401     2.15935614     0.21912491
H       7.93560302     2.16903595     0.30239479
H       6.69771248     2.64407216    -0.64082488
C       6.42243039     0.78613805     0.18831325
H       5.33377050     0.80445175     0.11138097
H       6.67118065     0.29119893     1.12882733
H       6.80816713     0.16493487    -0.63221963
15 
# or20: geometry number 13. H5-H13 distance: 2.3 
C       0.00000000     0.00000000     0.00000000
C       1.50168242     0.00000000     0.00000000
O       1.99935600     1.26165693     0.00000000
O       2.21003264    -0.97201393     0.00007510
H       2.96637189     1.18264570     0.00005633
H      -0.36991305     0.52964945     0.87921567
H      -0.36994767     0.52996114    -0.87901137
H      -0.36380470    -1.02331506    -0.00015939
N       6.82728240     2.17511422     0.21448638
H       7.83696141     2.18479403     0.29775626
H       6.59907087     2.65983024    -0.64546341
C       6.32378878     0.80189613     0.18367472
H       5.23512889     0.82020983     0.10674244
H       6.57253904     0.30695701     1.12418880
H       6.70952552     0.18069295    -0.63685816
15 
# or20: geometry number 14. H5-H13 distance: 2.2 
C       0.00000000     0.00000000     0.00000000
C       1.50168242     0.00000000     0.00000000
O       1.99935600     1.26165693     0.00000000
O       2.21003264    -0.97201393     0.00007510
H       2.96637189     1.18264570     0.00005633
H      -0.36991305     0.52964945     0.87921567
H      -0.36994767     0.52996114    -0.87901137
H      -0.36380470    -1.02331506    -0.00015939
N       6.72864079     2.19087230     0.20984785
H       7.73831980     2.20055211     0.29311773
H       6.50042926     2.67558832    -0.65010194
C       6.22514717     0.81765421     0.17903619
H       5.13648728     0.83596791     0.10210391
H       6.47389743     0.32271509     1.11955027
H       6.61088391     0.19645103    -0.64149669
15 
# or20: geometry number 15. H5-H13 distance: 2.0 
C       0.00000000     0.00000000     0.00000000
C       1.50168242     0.00000000     0.00000000
O       1.99935600     1.26165693     0.00000000
O       2.21003264    -0.97201393     0.00007510
H       2.96637189     1.18264570     0.00005633
H      -0.36991305     0.52964945     0.87921567
H      -0.36994767     0.52996114    -0.87901137
H      -0.36380470    -1.02331506    -0.00015939
N       6.53135757     2.22238846     0.20057080
H       7.54103658     2.23206827     0.28384068
H       6.30314604     2.70710448    -0.65937899
C       6.02786395     0.84917037     0.16975914
H       4.93920406     0.86748407     0.09282686
H       6.27661421     0.35423125     1.11027322
H       6.41360069     0.22796719    -0.65077374
15 
# or20: geometry number 16. H5-H13 distance: 1.8 
C       0.00000000     0.00000000     0.00000000
C       1.50168242     0.00000000     0.00000000
O       1.99935600     1.26165693     0.00000000
O       2.21003264    -0.97201393     0.00007510
H       2.96637189     1.18264570     0.00005633
H      -0.36991305     0.52964945     0.87921567
H      -0.36994767     0.52996114    -0.87901137
H      -0.36380470    -1.02331506    -0.00015939
N       6.33407435     2.25390463     0.19129375
H       7.34375336     2.26358444     0.27456363
H       6.10586282     2.73862065    -0.66865604
C       5.83058073     0.88068654     0.16048209
H       4.74192084     0.89900024     0.08354981
H       6.07933099     0.38574742     1.10099617
H       6.21631747     0.25948336    -0.66005079
15 
# or20: geometry number 17. H5-H13 distance: 1.7 
C       0.00000000     0.00000000     0.00000000
C       1.50168242     0.00000000     0.00000000
O       1.99935600     1.26165693     0.00000000
O       2.21003264    -0.97201393     0.00007510
H       2.96637189     1.18264570     0.00005633
H      -0.36991305     0.52964945     0.87921567
H      -0.36994767     0.52996114    -0.87901137
H      -0.36380470    -1.02331506    -0.00015939
N       6.23543275     2.26966271     0.18665522
H       7.24511176     2.27934252     0.26992510
H       6.00722122     2.75437873    -0.67329457
C       5.73193913     0.89644462     0.15584356
H       4.64327924     0.91475832     0.07891128
H       5.98068939     0.40150550     1.09635764
H       6.11767587     0.27524144    -0.66468932
15 
# or20: geometry number 18. H5-H13 distance: 1.6 
C       0.00000000     0.00000000     0.00000000
C       1.50168242     0.00000000     0.00000000
O       1.99935600     1.26165693     0.00000000
O       2.21003264    -0.97201393     0.00007510
H       2.96637189     1.18264570     0.00005633
H      -0.36991305     0.52964945     0.87921567
H      -0.36994767     0.52996114    -0.87901137
H      -0.36380470    -1.02331506    -0.00015939
N       6.13679114     2.28542079     0.18201670
H       7.14647015     2.29510060     0.26528658
H       5.90857961     2.77013681    -0.67793309
C       5.63329752     0.91220270     0.15120504
H       4.54463763     0.93051640     0.07427276
H       5.88204778     0.41726358     1.09171912
H       6.01903426     0.29099952    -0.66932784
15 
# or20: geometry number 19. H5-H13 distance: 1.5 
C       0.00000000     0.00000000     0.00000000
C       1.50168242     0.00000000     0.00000000
O       1.99935600     1.26165693     0.00000000
O       2.21003264    -0.97201393     0.00007510
H       2.96637189     1.18264570     0.00005633
H      -0.36991305     0.52964945     0.87921567
H      -0.36994767     0.52996114    -0.87901137
H      -0.36380470    -1.02331506    -0.00015939
N       6.03814953     2.30117887     0.17737817
H       7.04782854     2.31085868     0.26064805
H       5.80993800     2.78589489    -0.68257162
C       5.53465591     0.92796078     0.14656651
H       4.44599602     0.94627448     0.06963423
H       5.78340617     0.43302166     1.08708059
H       5.92039265     0.30675760    -0.67396637
15 
# or20: geometry number 20. H5-H13 distance: 1.4 
C       0.00000000     0.00000000     0.00000000
C       1.50168242     0.00000000     0.00000000
O       1.99935600     1.26165693     0.00000000
O       2.21003264    -0.97201393     0.00007510
H       2.96637189     1.18264570     0.00005633
H      -0.36991305     0.52964945     0.87921567
H      -0.36994767     0.52996114    -0.87901137
H      -0.36380470    -1.02331506    -0.00015939
N       5.93950792     2.31693695     0.17273964
H       6.94918693     2.32661676     0.25600952
H       5.71129639     2.80165297    -0.68721015
C       5.43601430     0.94371886     0.14192798
H       4.34735441     0.96203256     0.06499570
H       5.68476456     0.44877974     1.08244206
H       5.82175104     0.32251568    -0.67860490
15 
# or20: geometry number 21. H5-H13 distance: 1.3 
C       0.00000000     0.00000000     0.00000000
C       1.50168242     0.00000000     0.00000000
O       1.99935600     1.26165693     0.00000000
O       2.21003264    -0.97201393     0.00007510
H       2.96637189     1.18264570     0.00005633
H      -0.36991305     0.52964945     0.87921567
H      -0.36994767     0.52996114    -0.87901137
H      -0.36380470    -1.02331506    -0.00015939
N       5.84086631     2.33269503     0.16810112
H       6.85054532     2.34237484     0.25137100
H       5.61265478     2.81741105    -0.69184867
C       5.33737269     0.95947694     0.13728946
H       4.24871280     0.97779064     0.06035718
H       5.58612295     0.46453782     1.07780354
H       5.72310943     0.33827376    -0.68324342
15 
# or20: geometry number 22. H5-H13 distance: 1.25 
C       0.00000000     0.00000000     0.00000000
C       1.50168242     0.00000000     0.00000000
O       1.99935600     1.26165693     0.00000000
O       2.21003264    -0.97201393     0.00007510
H       2.96637189     1.18264570     0.00005633
H      -0.36991305     0.52964945     0.87921567
H      -0.36994767     0.52996114    -0.87901137
H      -0.36380470    -1.02331506    -0.00015939
N       5.79154551     2.34057407     0.16578185
H       6.80122452     2.35025388     0.24905173
H       5.56333398     2.82529009    -0.69416794
C       5.28805189     0.96735598     0.13497019
H       4.19939200     0.98566968     0.05803791
H       5.53680215     0.47241686     1.07548427
H       5.67378863     0.34615280    -0.68556269
15 
# or20: geometry number 23. H5-H13 distance: 1.2 
C       0.00000000     0.00000000     0.00000000
C       1.50168242     0.00000000     0.00000000
O       1.99935600     1.26165693     0.00000000
O       2.21003264    -0.97201393     0.00007510
H       2.96637189     1.18264570     0.00005633
H      -0.36991305     0.52964945     0.87921567
H      -0.36994767     0.52996114    -0.87901137
H      -0.36380470    -1.02331506    -0.00015939
N       5.74222470     2.34845311     0.16346259
H       6.75190371     2.35813292     0.24673247
H       5.51401317     2.83316913    -0.69648720
C       5.23873108     0.97523502     0.13265093
H       4.15007119     0.99354872     0.05571865
H       5.48748134     0.48029590     1.07316501
H       5.62446782     0.35403184    -0.68788195
15 
# or20: geometry number 24. H5-H13 distance: 1.15 
C       0.00000000     0.00000000     0.00000000
C       1.50168242     0.00000000     0.00000000
O       1.99935600     1.26165693     0.00000000
O       2.21003264    -0.97201393     0.00007510
H       2.96637189     1.18264570     0.00005633
H      -0.36991305     0.52964945     0.87921567
H      -0.36994767     0.52996114    -0.87901137
H      -0.36380470    -1.02331506    -0.00015939
N       5.69290390     2.35633216     0.16114333
H       6.70258291     2.36601197     0.24441321
H       5.46469237     2.84104818    -0.69880646
C       5.18941028     0.98311407     0.13033167
H       4.10075039     1.00142777     0.05339939
H       5.43816054     0.48817495     1.07084575
H       5.57514702     0.36191089    -0.69020121
15 
# or20: geometry number 25. H5-H13 distance: 1.1 
C       0.00000000     0.00000000     0.00000000
C       1.50168242     0.00000000     0.00000000
O       1.99935600     1.26165693     0.00000000
O       2.21003264    -0.97201393     0.00007510
H       2.96637189     1.18264570     0.00005633
H      -0.36991305     0.52964945     0.87921567
H      -0.36994767     0.52996114    -0.87901137
H      -0.36380470    -1.02331506    -0.00015939
N       5.64358309     2.36421120     0.15882406
H       6.65326210     2.37389101     0.24209394
H       5.41537156     2.84892722    -0.70112573
C       5.14008947     0.99099311     0.12801240
H       4.05142958     1.00930681     0.05108012
H       5.38883973     0.49605399     1.06852648
H       5.52582621     0.36978993    -0.69252048
15 
# or20: geometry number 26. H5-H13 distance: 1.05 
C       0.00000000     0.00000000     0.00000000
C       1.50168242     0.00000000     0.00000000
O       1.99935600     1.26165693     0.00000000
O       2.21003264    -0.97201393     0.00007510
H       2.96637189     1.18264570     0.00005633
H      -0.36991305     0.52964945     0.87921567
H      -0.36994767     0.52996114    -0.87901137
H      -0.36380470    -1.02331506    -0.00015939
N       5.59426229     2.37209024     0.15650480
H       6.60394130     2.38177005     0.23977468
H       5.36605076     2.85680626    -0.70344499
C       5.09076867     0.99887215     0.12569314
H       4.00210878     1.01718585     0.04876086
H       5.33951893     0.50393303     1.06620722
H       5.47650541     0.37766897    -0.69483974
15 
# or20: geometry number 27. H5-H13 distance: 1.0 
C       0.00000000     0.00000000     0.00000000
C       1.50168242     0.00000000     0.00000000
O       1.99935600     1.26165693     0.00000000
O       2.21003264    -0.97201393     0.00007510
H       2.96637189     1.18264570     0.00005633
H      -0.36991305     0.52964945     0.87921567
H      -0.36994767     0.52996114    -0.87901137
H      -0.36380470    -1.02331506    -0.00015939
N       5.54494149     2.37996928     0.15418554
H       6.55462050     2.38964909     0.23745542
H       5.31672996     2.86468530    -0.70576425
C       5.04144787     1.00675119     0.12337388
H       3.95278798     1.02506489     0.04644160
H       5.29019813     0.51181207     1.06388796
H       5.42718461     0.38554801    -0.69715900
15 
# or20: geometry number 28. H5-H13 distance: 0.95 
C       0.00000000     0.00000000     0.00000000
C       1.50168242     0.00000000     0.00000000
O       1.99935600     1.26165693     0.00000000
O       2.21003264    -0.97201393     0.00007510
H       2.96637189     1.18264570     0.00005633
H      -0.36991305     0.52964945     0.87921567
H      -0.36994767     0.52996114    -0.87901137
H      -0.36380470    -1.02331506    -0.00015939
N       5.49562068     2.38784832     0.15186627
H       6.50529969     2.39752813     0.23513615
H       5.26740915     2.87256434    -0.70808352
C       4.99212706     1.01463023     0.12105461
H       3.90346717     1.03294393     0.04412233
H       5.24087732     0.51969111     1.06156869
H       5.37786380     0.39342705    -0.69947827
15 
# or20: geometry number 29. H5-H13 distance: 0.9 
C       0.00000000     0.00000000     0.00000000
C       1.50168242     0.00000000     0.00000000
O       1.99935600     1.26165693     0.00000000
O       2.21003264    -0.97201393     0.00007510
H       2.96637189     1.18264570     0.00005633
H      -0.36991305     0.52964945     0.87921567
H      -0.36994767     0.52996114    -0.87901137
H      -0.36380470    -1.02331506    -0.00015939
N       5.44629988     2.39572736     0.14954701
H       6.45597889     2.40540717     0.23281689
H       5.21808835     2.88044338    -0.71040278
C       4.94280626     1.02250927     0.11873535
H       3.85414637     1.04082297     0.04180307
H       5.19155652     0.52757015     1.05924943
H       5.32854300     0.40130609    -0.70179753
