15 
# or21: geometry number 1. H6-N9 distance: 10 
C       0.00000000     0.00000000     0.00000000
C       1.50168242     0.00000000     0.00000000
O       1.99935600     1.26165693     0.00000000
O       2.21003264    -0.97201393     0.00007510
H       2.96637189     1.18264570     0.00005633
H      -0.36991305     0.52964945     0.87921567
H      -0.36994767     0.52996114    -0.87901137
H      -0.36380470    -1.02331506    -0.00015939
N      -3.52333120     6.01069184     8.62609428
H      -3.18792798     6.96669619     8.61979801
H      -3.12921033     5.56680685     9.44717809
C      -4.98517596     5.97550446     8.67030792
H      -5.31976059     4.93654489     8.66320487
H      -5.38320593     6.44885078     7.77090614
H      -5.43873058     6.46999585     9.54078302
15 
# or21: geometry number 2. H6-N9 distance: 8 
C       0.00000000     0.00000000     0.00000000
C       1.50168242     0.00000000     0.00000000
O       1.99935600     1.26165693     0.00000000
O       2.21003264    -0.97201393     0.00007510
H       2.96637189     1.18264570     0.00005633
H      -0.36991305     0.52964945     0.87921567
H      -0.36994767     0.52996114    -0.87901137
H      -0.36380470    -1.02331506    -0.00015939
N      -2.89264757     4.91448336     7.07671856
H      -2.55724435     5.87048771     7.07042229
H      -2.49852670     4.47059837     7.89780237
C      -4.35449233     4.87929598     7.12093220
H      -4.68907696     3.84033641     7.11382915
H      -4.75252230     5.35264230     6.22153042
H      -4.80804695     5.37378737     7.99140730
15 
# or21: geometry number 3. H6-N9 distance: 6 
C       0.00000000     0.00000000     0.00000000
C       1.50168242     0.00000000     0.00000000
O       1.99935600     1.26165693     0.00000000
O       2.21003264    -0.97201393     0.00007510
H       2.96637189     1.18264570     0.00005633
H      -0.36991305     0.52964945     0.87921567
H      -0.36994767     0.52996114    -0.87901137
H      -0.36380470    -1.02331506    -0.00015939
N      -2.26196394     3.81827489     5.52734284
H      -1.92656072     4.77427924     5.52104657
H      -1.86784307     3.37438990     6.34842665
C      -3.72380870     3.78308751     5.57155648
H      -4.05839333     2.74412794     5.56445343
H      -4.12183867     4.25643383     4.67215470
H      -4.17736332     4.27757890     6.44203158
15 
# or21: geometry number 4. H6-N9 distance: 5 
C       0.00000000     0.00000000     0.00000000
C       1.50168242     0.00000000     0.00000000
O       1.99935600     1.26165693     0.00000000
O       2.21003264    -0.97201393     0.00007510
H       2.96637189     1.18264570     0.00005633
H      -0.36991305     0.52964945     0.87921567
H      -0.36994767     0.52996114    -0.87901137
H      -0.36380470    -1.02331506    -0.00015939
N      -1.94662212     3.27017065     4.75265498
H      -1.61121890     4.22617500     4.74635871
H      -1.55250125     2.82628566     5.57373879
C      -3.40846688     3.23498327     4.79686862
H      -3.74305151     2.19602370     4.78976557
H      -3.80649685     3.70832959     3.89746684
H      -3.86202150     3.72947466     5.66734372
15 
# or21: geometry number 5. H6-N9 distance: 4.5 
C       0.00000000     0.00000000     0.00000000
C       1.50168242     0.00000000     0.00000000
O       1.99935600     1.26165693     0.00000000
O       2.21003264    -0.97201393     0.00007510
H       2.96637189     1.18264570     0.00005633
H      -0.36991305     0.52964945     0.87921567
H      -0.36994767     0.52996114    -0.87901137
H      -0.36380470    -1.02331506    -0.00015939
N      -1.78895122     2.99611853     4.36531105
H      -1.45354800     3.95212288     4.35901478
H      -1.39483035     2.55223354     5.18639486
C      -3.25079598     2.96093115     4.40952469
H      -3.58538061     1.92197158     4.40242164
H      -3.64882595     3.43427747     3.51012291
H      -3.70435060     3.45542254     5.27999979
15 
# or21: geometry number 6. H6-N9 distance: 4 
C       0.00000000     0.00000000     0.00000000
C       1.50168242     0.00000000     0.00000000
O       1.99935600     1.26165693     0.00000000
O       2.21003264    -0.97201393     0.00007510
H       2.96637189     1.18264570     0.00005633
H      -0.36991305     0.52964945     0.87921567
H      -0.36994767     0.52996114    -0.87901137
H      -0.36380470    -1.02331506    -0.00015939
N      -1.63128031     2.72206641     3.97796712
H      -1.29587709     3.67807076     3.97167085
H      -1.23715944     2.27818142     4.79905093
C      -3.09312507     2.68687903     4.02218076
H      -3.42770970     1.64791946     4.01507771
H      -3.49115504     3.16022535     3.12277898
H      -3.54667969     3.18137042     4.89265586
15 
# or21: geometry number 7. H6-N9 distance: 3.7 
C       0.00000000     0.00000000     0.00000000
C       1.50168242     0.00000000     0.00000000
O       1.99935600     1.26165693     0.00000000
O       2.21003264    -0.97201393     0.00007510
H       2.96637189     1.18264570     0.00005633
H      -0.36991305     0.52964945     0.87921567
H      -0.36994767     0.52996114    -0.87901137
H      -0.36380470    -1.02331506    -0.00015939
N      -1.53667776     2.55763514     3.74556076
H      -1.20127454     3.51363949     3.73926449
H      -1.14255689     2.11375015     4.56664457
C      -2.99852252     2.52244776     3.78977440
H      -3.33310715     1.48348819     3.78267135
H      -3.39655249     2.99579408     2.89037262
H      -3.45207714     3.01693915     4.66024950
15 
# or21: geometry number 8. H6-N9 distance: 3.4 
C       0.00000000     0.00000000     0.00000000
C       1.50168242     0.00000000     0.00000000
O       1.99935600     1.26165693     0.00000000
O       2.21003264    -0.97201393     0.00007510
H       2.96637189     1.18264570     0.00005633
H      -0.36991305     0.52964945     0.87921567
H      -0.36994767     0.52996114    -0.87901137
H      -0.36380470    -1.02331506    -0.00015939
N      -1.44207522     2.39320386     3.51315440
H      -1.10667200     3.34920821     3.50685813
H      -1.04795435     1.94931887     4.33423821
C      -2.90391998     2.35801648     3.55736804
H      -3.23850461     1.31905691     3.55026499
H      -3.30194995     2.83136280     2.65796626
H      -3.35747460     2.85250787     4.42784314
15 
# or21: geometry number 9. H6-N9 distance: 3.1 
C       0.00000000     0.00000000     0.00000000
C       1.50168242     0.00000000     0.00000000
O       1.99935600     1.26165693     0.00000000
O       2.21003264    -0.97201393     0.00007510
H       2.96637189     1.18264570     0.00005633
H      -0.36991305     0.52964945     0.87921567
H      -0.36994767     0.52996114    -0.87901137
H      -0.36380470    -1.02331506    -0.00015939
N      -1.34747268     2.22877259     3.28074804
H      -1.01206946     3.18477694     3.27445177
H      -0.95335181     1.78488760     4.10183185
C      -2.80931744     2.19358521     3.32496168
H      -3.14390207     1.15462564     3.31785863
H      -3.20734741     2.66693153     2.42555990
H      -3.26287206     2.68807660     4.19543678
15 
# or21: geometry number 10. H6-N9 distance: 2.9 
C       0.00000000     0.00000000     0.00000000
C       1.50168242     0.00000000     0.00000000
O       1.99935600     1.26165693     0.00000000
O       2.21003264    -0.97201393     0.00007510
H       2.96637189     1.18264570     0.00005633
H      -0.36991305     0.52964945     0.87921567
H      -0.36994767     0.52996114    -0.87901137
H      -0.36380470    -1.02331506    -0.00015939
N      -1.28440431     2.11915174     3.12581047
H      -0.94900109     3.07515609     3.11951420
H      -0.89028344     1.67526675     3.94689428
C      -2.74624907     2.08396436     3.17002411
H      -3.08083370     1.04500479     3.16292106
H      -3.14427904     2.55731068     2.27062233
H      -3.19980369     2.57845575     4.04049921
15 
# or21: geometry number 11. H6-N9 distance: 2.7 
C       0.00000000     0.00000000     0.00000000
C       1.50168242     0.00000000     0.00000000
O       1.99935600     1.26165693     0.00000000
O       2.21003264    -0.97201393     0.00007510
H       2.96637189     1.18264570     0.00005633
H      -0.36991305     0.52964945     0.87921567
H      -0.36994767     0.52996114    -0.87901137
H      -0.36380470    -1.02331506    -0.00015939
N      -1.22133595     2.00953090     2.97087290
H      -0.88593273     2.96553525     2.96457663
H      -0.82721508     1.56564591     3.79195671
C      -2.68318071     1.97434352     3.01508654
H      -3.01776534     0.93538395     3.00798349
H      -3.08121068     2.44768984     2.11568476
H      -3.13673533     2.46883491     3.88556164
15 
# or21: geometry number 12. H6-N9 distance: 2.5 
C       0.00000000     0.00000000     0.00000000
C       1.50168242     0.00000000     0.00000000
O       1.99935600     1.26165693     0.00000000
O       2.21003264    -0.97201393     0.00007510
H       2.96637189     1.18264570     0.00005633
H      -0.36991305     0.52964945     0.87921567
H      -0.36994767     0.52996114    -0.87901137
H      -0.36380470    -1.02331506    -0.00015939
N      -1.15826759     1.89991005     2.81593532
H      -0.82286437     2.85591440     2.80963905
H      -0.76414672     1.45602506     3.63701913
C      -2.62011235     1.86472267     2.86014896
H      -2.95469698     0.82576310     2.85304591
H      -3.01814232     2.33806899     1.96074718
H      -3.07366697     2.35921406     3.73062406
15 
# or21: geometry number 13. H6-N9 distance: 2.4 
C       0.00000000     0.00000000     0.00000000
C       1.50168242     0.00000000     0.00000000
O       1.99935600     1.26165693     0.00000000
O       2.21003264    -0.97201393     0.00007510
H       2.96637189     1.18264570     0.00005633
H      -0.36991305     0.52964945     0.87921567
H      -0.36994767     0.52996114    -0.87901137
H      -0.36380470    -1.02331506    -0.00015939
N      -1.12673341     1.84509962     2.73846654
H      -0.79133019     2.80110397     2.73217027
H      -0.73261254     1.40121463     3.55955035
C      -2.58857817     1.80991224     2.78268018
H      -2.92316280     0.77095267     2.77557713
H      -2.98660814     2.28325856     1.88327840
H      -3.04213279     2.30440363     3.65315528
15 
# or21: geometry number 14. H6-N9 distance: 2.3 
C       0.00000000     0.00000000     0.00000000
C       1.50168242     0.00000000     0.00000000
O       1.99935600     1.26165693     0.00000000
O       2.21003264    -0.97201393     0.00007510
H       2.96637189     1.18264570     0.00005633
H      -0.36991305     0.52964945     0.87921567
H      -0.36994767     0.52996114    -0.87901137
H      -0.36380470    -1.02331506    -0.00015939
N      -1.09519922     1.79028920     2.66099775
H      -0.75979600     2.74629355     2.65470148
H      -0.70107835     1.34640421     3.48208156
C      -2.55704398     1.75510182     2.70521139
H      -2.89162861     0.71614225     2.69810834
H      -2.95507395     2.22844814     1.80580961
H      -3.01059860     2.24959321     3.57568649
15 
# or21: geometry number 15. H6-N9 distance: 2.2 
C       0.00000000     0.00000000     0.00000000
C       1.50168242     0.00000000     0.00000000
O       1.99935600     1.26165693     0.00000000
O       2.21003264    -0.97201393     0.00007510
H       2.96637189     1.18264570     0.00005633
H      -0.36991305     0.52964945     0.87921567
H      -0.36994767     0.52996114    -0.87901137
H      -0.36380470    -1.02331506    -0.00015939
N      -1.06366504     1.73547878     2.58352897
H      -0.72826182     2.69148313     2.57723270
H      -0.66954417     1.29159379     3.40461278
C      -2.52550980     1.70029140     2.62774261
H      -2.86009443     0.66133183     2.62063956
H      -2.92353977     2.17363772     1.72834083
H      -2.97906442     2.19478279     3.49821771
15 
# or21: geometry number 16. H6-N9 distance: 2.1 
C       0.00000000     0.00000000     0.00000000
C       1.50168242     0.00000000     0.00000000
O       1.99935600     1.26165693     0.00000000
O       2.21003264    -0.97201393     0.00007510
H       2.96637189     1.18264570     0.00005633
H      -0.36991305     0.52964945     0.87921567
H      -0.36994767     0.52996114    -0.87901137
H      -0.36380470    -1.02331506    -0.00015939
N      -1.03213086     1.68066835     2.50606018
H      -0.69672764     2.63667270     2.49976391
H      -0.63800999     1.23678336     3.32714399
C      -2.49397562     1.64548097     2.55027382
H      -2.82856025     0.60652140     2.54317077
H      -2.89200559     2.11882729     1.65087204
H      -2.94753024     2.13997236     3.42074892
15 
# or21: geometry number 17. H6-N9 distance: 2.0 
C       0.00000000     0.00000000     0.00000000
C       1.50168242     0.00000000     0.00000000
O       1.99935600     1.26165693     0.00000000
O       2.21003264    -0.97201393     0.00007510
H       2.96637189     1.18264570     0.00005633
H      -0.36991305     0.52964945     0.87921567
H      -0.36994767     0.52996114    -0.87901137
H      -0.36380470    -1.02331506    -0.00015939
N      -1.00059668     1.62585793     2.42859139
H      -0.66519346     2.58186228     2.42229512
H      -0.60647581     1.18197294     3.24967520
C      -2.46244144     1.59067055     2.47280503
H      -2.79702607     0.55171098     2.46570198
H      -2.86047141     2.06401687     1.57340325
H      -2.91599606     2.08516194     3.34328013
15 
# or21: geometry number 18. H6-N9 distance: 1.9 
C       0.00000000     0.00000000     0.00000000
C       1.50168242     0.00000000     0.00000000
O       1.99935600     1.26165693     0.00000000
O       2.21003264    -0.97201393     0.00007510
H       2.96637189     1.18264570     0.00005633
H      -0.36991305     0.52964945     0.87921567
H      -0.36994767     0.52996114    -0.87901137
H      -0.36380470    -1.02331506    -0.00015939
N      -0.96906250     1.57104750     2.35112261
H      -0.63365928     2.52705185     2.34482634
H      -0.57494163     1.12716251     3.17220642
C      -2.43090726     1.53586012     2.39533625
H      -2.76549189     0.49690055     2.38823320
H      -2.82893723     2.00920644     1.49593447
H      -2.88446188     2.03035151     3.26581135
15 
# or21: geometry number 19. H6-N9 distance: 1.8 
C       0.00000000     0.00000000     0.00000000
C       1.50168242     0.00000000     0.00000000
O       1.99935600     1.26165693     0.00000000
O       2.21003264    -0.97201393     0.00007510
H       2.96637189     1.18264570     0.00005633
H      -0.36991305     0.52964945     0.87921567
H      -0.36994767     0.52996114    -0.87901137
H      -0.36380470    -1.02331506    -0.00015939
N      -0.93752832     1.51623708     2.27365382
H      -0.60212510     2.47224143     2.26735755
H      -0.54340745     1.07235209     3.09473763
C      -2.39937308     1.48104970     2.31786746
H      -2.73395771     0.44209013     2.31076441
H      -2.79740305     1.95439602     1.41846568
H      -2.85292770     1.97554109     3.18834256
15 
# or21: geometry number 20. H6-N9 distance: 1.75 
C       0.00000000     0.00000000     0.00000000
C       1.50168242     0.00000000     0.00000000
O       1.99935600     1.26165693     0.00000000
O       2.21003264    -0.97201393     0.00007510
H       2.96637189     1.18264570     0.00005633
H      -0.36991305     0.52964945     0.87921567
H      -0.36994767     0.52996114    -0.87901137
H      -0.36380470    -1.02331506    -0.00015939
N      -0.92176123     1.48883187     2.23491943
H      -0.58635801     2.44483622     2.22862316
H      -0.52764036     1.04494688     3.05600324
C      -2.38360599     1.45364449     2.27913307
H      -2.71819062     0.41468492     2.27203002
H      -2.78163596     1.92699081     1.37973129
H      -2.83716061     1.94813588     3.14960817
15 
# or21: geometry number 21. H6-N9 distance: 1.7 
C       0.00000000     0.00000000     0.00000000
C       1.50168242     0.00000000     0.00000000
O       1.99935600     1.26165693     0.00000000
O       2.21003264    -0.97201393     0.00007510
H       2.96637189     1.18264570     0.00005633
H      -0.36991305     0.52964945     0.87921567
H      -0.36994767     0.52996114    -0.87901137
H      -0.36380470    -1.02331506    -0.00015939
N      -0.90599414     1.46142666     2.19618503
H      -0.57059092     2.41743101     2.18988876
H      -0.51187327     1.01754167     3.01726884
C      -2.36783890     1.42623928     2.24039867
H      -2.70242353     0.38727971     2.23329562
H      -2.76586887     1.89958560     1.34099689
H      -2.82139352     1.92073067     3.11087377
15 
# or21: geometry number 22. H6-N9 distance: 1.65 
C       0.00000000     0.00000000     0.00000000
C       1.50168242     0.00000000     0.00000000
O       1.99935600     1.26165693     0.00000000
O       2.21003264    -0.97201393     0.00007510
H       2.96637189     1.18264570     0.00005633
H      -0.36991305     0.52964945     0.87921567
H      -0.36994767     0.52996114    -0.87901137
H      -0.36380470    -1.02331506    -0.00015939
N      -0.89022704     1.43402144     2.15745064
H      -0.55482382     2.39002579     2.15115437
H      -0.49610617     0.99013645     2.97853445
C      -2.35207180     1.39883406     2.20166428
H      -2.68665643     0.35987449     2.19456123
H      -2.75010177     1.87218038     1.30226250
H      -2.80562642     1.89332545     3.07213938
15 
# or21: geometry number 23. H6-N9 distance: 1.6 
C       0.00000000     0.00000000     0.00000000
C       1.50168242     0.00000000     0.00000000
O       1.99935600     1.26165693     0.00000000
O       2.21003264    -0.97201393     0.00007510
H       2.96637189     1.18264570     0.00005633
H      -0.36991305     0.52964945     0.87921567
H      -0.36994767     0.52996114    -0.87901137
H      -0.36380470    -1.02331506    -0.00015939
N      -0.87445995     1.40661623     2.11871625
H      -0.53905673     2.36262058     2.11241998
H      -0.48033908     0.96273124     2.93980006
C      -2.33630471     1.37142885     2.16292989
H      -2.67088934     0.33246928     2.15582684
H      -2.73433468     1.84477517     1.26352811
H      -2.78985933     1.86592024     3.03340499
15 
# or21: geometry number 24. H6-N9 distance: 1.55 
C       0.00000000     0.00000000     0.00000000
C       1.50168242     0.00000000     0.00000000
O       1.99935600     1.26165693     0.00000000
O       2.21003264    -0.97201393     0.00007510
H       2.96637189     1.18264570     0.00005633
H      -0.36991305     0.52964945     0.87921567
H      -0.36994767     0.52996114    -0.87901137
H      -0.36380470    -1.02331506    -0.00015939
N      -0.85869286     1.37921102     2.07998186
H      -0.52328964     2.33521537     2.07368559
H      -0.46457199     0.93532603     2.90106567
C      -2.32053762     1.34402364     2.12419550
H      -2.65512225     0.30506407     2.11709245
H      -2.71856759     1.81736996     1.22479372
H      -2.77409224     1.83851503     2.99467060
15 
# or21: geometry number 25. H6-N9 distance: 1.5 
C       0.00000000     0.00000000     0.00000000
C       1.50168242     0.00000000     0.00000000
O       1.99935600     1.26165693     0.00000000
O       2.21003264    -0.97201393     0.00007510
H       2.96637189     1.18264570     0.00005633
H      -0.36991305     0.52964945     0.87921567
H      -0.36994767     0.52996114    -0.87901137
H      -0.36380470    -1.02331506    -0.00015939
N      -0.84292577     1.35180581     2.04124746
H      -0.50752255     2.30781016     2.03495119
H      -0.44880490     0.90792082     2.86233127
C      -2.30477053     1.31661843     2.08546110
H      -2.63935516     0.27765886     2.07835805
H      -2.70280050     1.78996475     1.18605932
H      -2.75832515     1.81110982     2.95593620
15 
# or21: geometry number 26. H6-N9 distance: 1.45 
C       0.00000000     0.00000000     0.00000000
C       1.50168242     0.00000000     0.00000000
O       1.99935600     1.26165693     0.00000000
O       2.21003264    -0.97201393     0.00007510
H       2.96637189     1.18264570     0.00005633
H      -0.36991305     0.52964945     0.87921567
H      -0.36994767     0.52996114    -0.87901137
H      -0.36380470    -1.02331506    -0.00015939
N      -0.82715868     1.32440060     2.00251307
H      -0.49175546     2.28040495     1.99621680
H      -0.43303781     0.88051561     2.82359688
C      -2.28900344     1.28921322     2.04672671
H      -2.62358807     0.25025365     2.03962366
H      -2.68703341     1.76255954     1.14732493
H      -2.74255806     1.78370461     2.91720181
15 
# or21: geometry number 27. H6-N9 distance: 1.4 
C       0.00000000     0.00000000     0.00000000
C       1.50168242     0.00000000     0.00000000
O       1.99935600     1.26165693     0.00000000
O       2.21003264    -0.97201393     0.00007510
H       2.96637189     1.18264570     0.00005633
H      -0.36991305     0.52964945     0.87921567
H      -0.36994767     0.52996114    -0.87901137
H      -0.36380470    -1.02331506    -0.00015939
N      -0.81139159     1.29699539     1.96377868
H      -0.47598837     2.25299974     1.95748241
H      -0.41727072     0.85311040     2.78486249
C      -2.27323635     1.26180801     2.00799232
H      -2.60782098     0.22284844     2.00088927
H      -2.67126632     1.73515433     1.10859054
H      -2.72679097     1.75629940     2.87846742
15 
# or21: geometry number 28. H6-N9 distance: 1.35 
C       0.00000000     0.00000000     0.00000000
C       1.50168242     0.00000000     0.00000000
O       1.99935600     1.26165693     0.00000000
O       2.21003264    -0.97201393     0.00007510
H       2.96637189     1.18264570     0.00005633
H      -0.36991305     0.52964945     0.87921567
H      -0.36994767     0.52996114    -0.87901137
H      -0.36380470    -1.02331506    -0.00015939
N      -0.79562450     1.26959017     1.92504428
H      -0.46022128     2.22559452     1.91874801
H      -0.40150363     0.82570518     2.74612809
C      -2.25746926     1.23440279     1.96925792
H      -2.59205389     0.19544322     1.96215487
H      -2.65549923     1.70774911     1.06985614
H      -2.71102388     1.72889418     2.83973302
15 
# or21: geometry number 29. H6-N9 distance: 1.3 
C       0.00000000     0.00000000     0.00000000
C       1.50168242     0.00000000     0.00000000
O       1.99935600     1.26165693     0.00000000
O       2.21003264    -0.97201393     0.00007510
H       2.96637189     1.18264570     0.00005633
H      -0.36991305     0.52964945     0.87921567
H      -0.36994767     0.52996114    -0.87901137
H      -0.36380470    -1.02331506    -0.00015939
N      -0.77985741     1.24218496     1.88630989
H      -0.44445419     2.19818931     1.88001362
H      -0.38573654     0.79829997     2.70739370
C      -2.24170217     1.20699758     1.93052353
H      -2.57628680     0.16803801     1.92342048
H      -2.63973214     1.68034390     1.03112175
H      -2.69525679     1.70148897     2.80099863
