14 
# or2: geometry number 1. N1-H10 distance: 11 
N      -2.48782849    -1.80507723     3.11057411
H      -3.02172667    -2.42028330     3.71303034
H      -2.44757539    -0.90426174     3.57258590
C      -1.14189813    -2.33505755     2.89199816
H      -0.59366520    -1.66139352     2.23089925
H      -1.21337273    -3.29842253     2.38383732
H      -0.54182161    -2.47714914     3.80176659
N      -8.53017191    -0.48069488    -7.18761554
H      -7.99362926     0.15802879    -7.76262280
H      -8.02056422    -0.59239251    -6.31907228
C      -9.87014712     0.05005466    -6.93670821
H     -10.43002112    -0.66170523    -6.32730415
H     -10.40046406     0.14970329    -7.88551917
H      -9.89968775     1.02472330    -6.42964920
14 
# or2: geometry number 2. N1-H10 distance: 10 
N      -2.48782849    -1.80507723     3.11057411
H      -3.02172667    -2.42028330     3.71303034
H      -2.44757539    -0.90426174     3.57258590
C      -1.14189813    -2.33505755     2.89199816
H      -0.59366520    -1.66139352     2.23089925
H      -1.21337273    -3.29842253     2.38383732
H      -0.54182161    -2.47714914     3.80176659
N      -8.02719594    -0.59093894    -6.33037496
H      -7.49065329     0.04778473    -6.90538222
H      -7.51758825    -0.70263657    -5.46183170
C      -9.36717115    -0.06018940    -6.07946763
H      -9.92704515    -0.77194929    -5.47006357
H      -9.89748809     0.03945923    -7.02827859
H      -9.39671178     0.91447924    -5.57240862
14 
# or2: geometry number 3. N1-H10 distance: 9 
N      -2.48782849    -1.80507723     3.11057411
H      -3.02172667    -2.42028330     3.71303034
H      -2.44757539    -0.90426174     3.57258590
C      -1.14189813    -2.33505755     2.89199816
H      -0.59366520    -1.66139352     2.23089925
H      -1.21337273    -3.29842253     2.38383732
H      -0.54182161    -2.47714914     3.80176659
N      -7.52421996    -0.70118301    -5.47313438
H      -6.98767731    -0.06245934    -6.04814164
H      -7.01461227    -0.81288064    -4.60459112
C      -8.86419517    -0.17043347    -5.22222705
H      -9.42406917    -0.88219336    -4.61282299
H      -9.39451211    -0.07078484    -6.17103801
H      -8.89373580     0.80423517    -4.71516804
14 
# or2: geometry number 4. N1-H10 distance: 8 
N      -2.48782849    -1.80507723     3.11057411
H      -3.02172667    -2.42028330     3.71303034
H      -2.44757539    -0.90426174     3.57258590
C      -1.14189813    -2.33505755     2.89199816
H      -0.59366520    -1.66139352     2.23089925
H      -1.21337273    -3.29842253     2.38383732
H      -0.54182161    -2.47714914     3.80176659
N      -7.02124399    -0.81142707    -4.61589380
H      -6.48470134    -0.17270340    -5.19090106
H      -6.51163630    -0.92312470    -3.74735054
C      -8.36121920    -0.28067753    -4.36498647
H      -8.92109320    -0.99243742    -3.75558241
H      -8.89153614    -0.18102890    -5.31379743
H      -8.39075983     0.69399111    -3.85792746
14 
# or2: geometry number 5. N1-H10 distance: 7 
N      -2.48782849    -1.80507723     3.11057411
H      -3.02172667    -2.42028330     3.71303034
H      -2.44757539    -0.90426174     3.57258590
C      -1.14189813    -2.33505755     2.89199816
H      -0.59366520    -1.66139352     2.23089925
H      -1.21337273    -3.29842253     2.38383732
H      -0.54182161    -2.47714914     3.80176659
N      -6.51826801    -0.92167114    -3.75865322
H      -5.98172536    -0.28294747    -4.33366048
H      -6.00866032    -1.03336877    -2.89010996
C      -7.85824322    -0.39092160    -3.50774589
H      -8.41811722    -1.10268149    -2.89834183
H      -8.38856016    -0.29127297    -4.45655685
H      -7.88778385     0.58374704    -3.00068688
14 
# or2: geometry number 6. N1-H10 distance: 6 
N      -2.48782849    -1.80507723     3.11057411
H      -3.02172667    -2.42028330     3.71303034
H      -2.44757539    -0.90426174     3.57258590
C      -1.14189813    -2.33505755     2.89199816
H      -0.59366520    -1.66139352     2.23089925
H      -1.21337273    -3.29842253     2.38383732
H      -0.54182161    -2.47714914     3.80176659
N      -6.01529203    -1.03191521    -2.90141264
H      -5.47874938    -0.39319154    -3.47641990
H      -5.50568434    -1.14361284    -2.03286938
C      -7.35526724    -0.50116567    -2.65050531
H      -7.91514124    -1.21292556    -2.04110125
H      -7.88558418    -0.40151704    -3.59931627
H      -7.38480787     0.47350297    -2.14344630
14 
# or2: geometry number 7. N1-H10 distance: 5 
N      -2.48782849    -1.80507723     3.11057411
H      -3.02172667    -2.42028330     3.71303034
H      -2.44757539    -0.90426174     3.57258590
C      -1.14189813    -2.33505755     2.89199816
H      -0.59366520    -1.66139352     2.23089925
H      -1.21337273    -3.29842253     2.38383732
H      -0.54182161    -2.47714914     3.80176659
N      -5.51231606    -1.14215927    -2.04417206
H      -4.97577341    -0.50343560    -2.61917932
H      -5.00270837    -1.25385690    -1.17562880
C      -6.85229127    -0.61140973    -1.79326473
H      -7.41216527    -1.32316962    -1.18386067
H      -7.38260821    -0.51176110    -2.74207569
H      -6.88183190     0.36325891    -1.28620572
14 
# or2: geometry number 8. N1-H10 distance: 4.5 
N      -2.48782849    -1.80507723     3.11057411
H      -3.02172667    -2.42028330     3.71303034
H      -2.44757539    -0.90426174     3.57258590
C      -1.14189813    -2.33505755     2.89199816
H      -0.59366520    -1.66139352     2.23089925
H      -1.21337273    -3.29842253     2.38383732
H      -0.54182161    -2.47714914     3.80176659
N      -5.26082807    -1.19728130    -1.61555176
H      -4.72428542    -0.55855763    -2.19055902
H      -4.75122038    -1.30897893    -0.74700850
C      -6.60080328    -0.66653176    -1.36464443
H      -7.16067728    -1.37829165    -0.75524037
H      -7.13112022    -0.56688313    -2.31345539
H      -6.63034391     0.30813688    -0.85758542
14 
# or2: geometry number 9. N1-H10 distance: 4 
N      -2.48782849    -1.80507723     3.11057411
H      -3.02172667    -2.42028330     3.71303034
H      -2.44757539    -0.90426174     3.57258590
C      -1.14189813    -2.33505755     2.89199816
H      -0.59366520    -1.66139352     2.23089925
H      -1.21337273    -3.29842253     2.38383732
H      -0.54182161    -2.47714914     3.80176659
N      -5.00934008    -1.25240334    -1.18693147
H      -4.47279743    -0.61367967    -1.76193873
H      -4.49973239    -1.36410097    -0.31838821
C      -6.34931529    -0.72165380    -0.93602414
H      -6.90918929    -1.43341369    -0.32662008
H      -6.87963223    -0.62200517    -1.88483510
H      -6.37885592     0.25301484    -0.42896513
14 
# or2: geometry number 10. N1-H10 distance: 3.7 
N      -2.48782849    -1.80507723     3.11057411
H      -3.02172667    -2.42028330     3.71303034
H      -2.44757539    -0.90426174     3.57258590
C      -1.14189813    -2.33505755     2.89199816
H      -0.59366520    -1.66139352     2.23089925
H      -1.21337273    -3.29842253     2.38383732
H      -0.54182161    -2.47714914     3.80176659
N      -4.85844729    -1.28547656    -0.92975930
H      -4.32190464    -0.64675289    -1.50476656
H      -4.34883960    -1.39717419    -0.06121604
C      -6.19842250    -0.75472702    -0.67885197
H      -6.75829650    -1.46648691    -0.06944791
H      -6.72873944    -0.65507839    -1.62766293
H      -6.22796313     0.21994162    -0.17179296
14 
# or2: geometry number 11. N1-H10 distance: 3.4 
N      -2.48782849    -1.80507723     3.11057411
H      -3.02172667    -2.42028330     3.71303034
H      -2.44757539    -0.90426174     3.57258590
C      -1.14189813    -2.33505755     2.89199816
H      -0.59366520    -1.66139352     2.23089925
H      -1.21337273    -3.29842253     2.38383732
H      -0.54182161    -2.47714914     3.80176659
N      -4.70755450    -1.31854978    -0.67258713
H      -4.17101185    -0.67982611    -1.24759439
H      -4.19794681    -1.43024741     0.19595613
C      -6.04752971    -0.78780024    -0.42167980
H      -6.60740371    -1.49956013     0.18772426
H      -6.57784665    -0.68815161    -1.37049076
H      -6.07707034     0.18686840     0.08537921
14 
# or2: geometry number 12. N1-H10 distance: 3.1 
N      -2.48782849    -1.80507723     3.11057411
H      -3.02172667    -2.42028330     3.71303034
H      -2.44757539    -0.90426174     3.57258590
C      -1.14189813    -2.33505755     2.89199816
H      -0.59366520    -1.66139352     2.23089925
H      -1.21337273    -3.29842253     2.38383732
H      -0.54182161    -2.47714914     3.80176659
N      -4.55666170    -1.35162300    -0.41541495
H      -4.02011905    -0.71289933    -0.99042221
H      -4.04705401    -1.46332063     0.45312831
C      -5.89663691    -0.82087346    -0.16450762
H      -6.45651091    -1.53263335     0.44489644
H      -6.42695385    -0.72122483    -1.11331858
H      -5.92617754     0.15379518     0.34255139
14 
# or2: geometry number 13. N1-H10 distance: 2.9 
N      -2.48782849    -1.80507723     3.11057411
H      -3.02172667    -2.42028330     3.71303034
H      -2.44757539    -0.90426174     3.57258590
C      -1.14189813    -2.33505755     2.89199816
H      -0.59366520    -1.66139352     2.23089925
H      -1.21337273    -3.29842253     2.38383732
H      -0.54182161    -2.47714914     3.80176659
N      -4.45606651    -1.37367181    -0.24396683
H      -3.91952386    -0.73494814    -0.81897409
H      -3.94645882    -1.48536944     0.62457643
C      -5.79604172    -0.84292227     0.00694050
H      -6.35591572    -1.55468216     0.61634456
H      -6.32635866    -0.74327364    -0.94187046
H      -5.82558235     0.13174637     0.51399951
14 
# or2: geometry number 14. N1-H10 distance: 2.7 
N      -2.48782849    -1.80507723     3.11057411
H      -3.02172667    -2.42028330     3.71303034
H      -2.44757539    -0.90426174     3.57258590
C      -1.14189813    -2.33505755     2.89199816
H      -0.59366520    -1.66139352     2.23089925
H      -1.21337273    -3.29842253     2.38383732
H      -0.54182161    -2.47714914     3.80176659
N      -4.35547131    -1.39572062    -0.07251872
H      -3.81892866    -0.75699695    -0.64752598
H      -3.84586362    -1.50741825     0.79602454
C      -5.69544652    -0.86497108     0.17838861
H      -6.25532052    -1.57673097     0.78779267
H      -6.22576346    -0.76532245    -0.77042235
H      -5.72498715     0.10969756     0.68544762
14 
# or2: geometry number 15. N1-H10 distance: 2.5 
N      -2.48782849    -1.80507723     3.11057411
H      -3.02172667    -2.42028330     3.71303034
H      -2.44757539    -0.90426174     3.57258590
C      -1.14189813    -2.33505755     2.89199816
H      -0.59366520    -1.66139352     2.23089925
H      -1.21337273    -3.29842253     2.38383732
H      -0.54182161    -2.47714914     3.80176659
N      -4.25487612    -1.41776944     0.09892940
H      -3.71833347    -0.77904577    -0.47607786
H      -3.74526843    -1.52946707     0.96747266
C      -5.59485133    -0.88701990     0.34983673
H      -6.15472533    -1.59877979     0.95924079
H      -6.12516827    -0.78737127    -0.59897423
H      -5.62439196     0.08764874     0.85689574
14 
# or2: geometry number 16. N1-H10 distance: 2.4 
N      -2.48782849    -1.80507723     3.11057411
H      -3.02172667    -2.42028330     3.71303034
H      -2.44757539    -0.90426174     3.57258590
C      -1.14189813    -2.33505755     2.89199816
H      -0.59366520    -1.66139352     2.23089925
H      -1.21337273    -3.29842253     2.38383732
H      -0.54182161    -2.47714914     3.80176659
N      -4.20457852    -1.42879384     0.18465346
H      -3.66803587    -0.79007017    -0.39035380
H      -3.69497083    -1.54049147     1.05319672
C      -5.54455373    -0.89804430     0.43556079
H      -6.10442773    -1.60980419     1.04496485
H      -6.07487067    -0.79839567    -0.51325017
H      -5.57409436     0.07662434     0.94261980
14 
# or2: geometry number 17. N1-H10 distance: 2.3 
N      -2.48782849    -1.80507723     3.11057411
H      -3.02172667    -2.42028330     3.71303034
H      -2.44757539    -0.90426174     3.57258590
C      -1.14189813    -2.33505755     2.89199816
H      -0.59366520    -1.66139352     2.23089925
H      -1.21337273    -3.29842253     2.38383732
H      -0.54182161    -2.47714914     3.80176659
N      -4.15428092    -1.43981825     0.27037751
H      -3.61773827    -0.80109458    -0.30462975
H      -3.64467323    -1.55151588     1.13892077
C      -5.49425613    -0.90906871     0.52128484
H      -6.05413013    -1.62082860     1.13068890
H      -6.02457307    -0.80942008    -0.42752612
H      -5.52379676     0.06559993     1.02834385
14 
# or2: geometry number 18. N1-H10 distance: 2.2 
N      -2.48782849    -1.80507723     3.11057411
H      -3.02172667    -2.42028330     3.71303034
H      -2.44757539    -0.90426174     3.57258590
C      -1.14189813    -2.33505755     2.89199816
H      -0.59366520    -1.66139352     2.23089925
H      -1.21337273    -3.29842253     2.38383732
H      -0.54182161    -2.47714914     3.80176659
N      -4.10398333    -1.45084266     0.35610157
H      -3.56744068    -0.81211899    -0.21890569
H      -3.59437564    -1.56254029     1.22464483
C      -5.44395854    -0.92009312     0.60700890
H      -6.00383254    -1.63185301     1.21641296
H      -5.97427548    -0.82044449    -0.34180206
H      -5.47349917     0.05457552     1.11406791
14 
# or2: geometry number 19. N1-H10 distance: 2.1 
N      -2.48782849    -1.80507723     3.11057411
H      -3.02172667    -2.42028330     3.71303034
H      -2.44757539    -0.90426174     3.57258590
C      -1.14189813    -2.33505755     2.89199816
H      -0.59366520    -1.66139352     2.23089925
H      -1.21337273    -3.29842253     2.38383732
H      -0.54182161    -2.47714914     3.80176659
N      -4.05368573    -1.46186706     0.44182563
H      -3.51714308    -0.82314339    -0.13318163
H      -3.54407804    -1.57356469     1.31036889
C      -5.39366094    -0.93111752     0.69273296
H      -5.95353494    -1.64287741     1.30213702
H      -5.92397788    -0.83146889    -0.25607800
H      -5.42320157     0.04355112     1.19979197
14 
# or2: geometry number 20. N1-H10 distance: 2.0 
N      -2.48782849    -1.80507723     3.11057411
H      -3.02172667    -2.42028330     3.71303034
H      -2.44757539    -0.90426174     3.57258590
C      -1.14189813    -2.33505755     2.89199816
H      -0.59366520    -1.66139352     2.23089925
H      -1.21337273    -3.29842253     2.38383732
H      -0.54182161    -2.47714914     3.80176659
N      -4.00338813    -1.47289147     0.52754969
H      -3.46684548    -0.83416780    -0.04745757
H      -3.49378044    -1.58458910     1.39609295
C      -5.34336334    -0.94214193     0.77845702
H      -5.90323734    -1.65390182     1.38786108
H      -5.87368028    -0.84249330    -0.17035394
H      -5.37290397     0.03252671     1.28551603
14 
# or2: geometry number 21. N1-H10 distance: 1.9 
N      -2.48782849    -1.80507723     3.11057411
H      -3.02172667    -2.42028330     3.71303034
H      -2.44757539    -0.90426174     3.57258590
C      -1.14189813    -2.33505755     2.89199816
H      -0.59366520    -1.66139352     2.23089925
H      -1.21337273    -3.29842253     2.38383732
H      -0.54182161    -2.47714914     3.80176659
N      -3.95309053    -1.48391587     0.61327375
H      -3.41654788    -0.84519220     0.03826649
H      -3.44348284    -1.59561350     1.48181701
C      -5.29306574    -0.95316633     0.86418108
H      -5.85293974    -1.66492622     1.47358514
H      -5.82338268    -0.85351770    -0.08462988
H      -5.32260637     0.02150231     1.37124009
14 
# or2: geometry number 22. N1-H10 distance: 1.85 
N      -2.48782849    -1.80507723     3.11057411
H      -3.02172667    -2.42028330     3.71303034
H      -2.44757539    -0.90426174     3.57258590
C      -1.14189813    -2.33505755     2.89199816
H      -0.59366520    -1.66139352     2.23089925
H      -1.21337273    -3.29842253     2.38383732
H      -0.54182161    -2.47714914     3.80176659
N      -3.92794174    -1.48942808     0.65613578
H      -3.39139909    -0.85070441     0.08112852
H      -3.41833405    -1.60112571     1.52467904
C      -5.26791695    -0.95867854     0.90704311
H      -5.82779095    -1.67043843     1.51644717
H      -5.79823389    -0.85902991    -0.04176785
H      -5.29745758     0.01599010     1.41410212
14 
# or2: geometry number 23. N1-H10 distance: 1.8 
N      -2.48782849    -1.80507723     3.11057411
H      -3.02172667    -2.42028330     3.71303034
H      -2.44757539    -0.90426174     3.57258590
C      -1.14189813    -2.33505755     2.89199816
H      -0.59366520    -1.66139352     2.23089925
H      -1.21337273    -3.29842253     2.38383732
H      -0.54182161    -2.47714914     3.80176659
N      -3.90279294    -1.49494028     0.69899780
H      -3.36625029    -0.85621661     0.12399054
H      -3.39318525    -1.60663791     1.56754106
C      -5.24276815    -0.96419074     0.94990513
H      -5.80264215    -1.67595063     1.55930919
H      -5.77308509    -0.86454211     0.00109417
H      -5.27230878     0.01047790     1.45696414
14 
# or2: geometry number 24. N1-H10 distance: 1.75 
N      -2.48782849    -1.80507723     3.11057411
H      -3.02172667    -2.42028330     3.71303034
H      -2.44757539    -0.90426174     3.57258590
C      -1.14189813    -2.33505755     2.89199816
H      -0.59366520    -1.66139352     2.23089925
H      -1.21337273    -3.29842253     2.38383732
H      -0.54182161    -2.47714914     3.80176659
N      -3.87764414    -1.50045248     0.74185983
H      -3.34110149    -0.86172881     0.16685257
H      -3.36803645    -1.61215011     1.61040309
C      -5.21761935    -0.96970294     0.99276716
H      -5.77749335    -1.68146283     1.60217122
H      -5.74793629    -0.87005431     0.04395620
H      -5.24715998     0.00496570     1.49982617
14 
# or2: geometry number 25. N1-H10 distance: 1.7 
N      -2.48782849    -1.80507723     3.11057411
H      -3.02172667    -2.42028330     3.71303034
H      -2.44757539    -0.90426174     3.57258590
C      -1.14189813    -2.33505755     2.89199816
H      -0.59366520    -1.66139352     2.23089925
H      -1.21337273    -3.29842253     2.38383732
H      -0.54182161    -2.47714914     3.80176659
N      -3.85249534    -1.50596469     0.78472186
H      -3.31595269    -0.86724102     0.20971460
H      -3.34288765    -1.61766232     1.65326512
C      -5.19247055    -0.97521515     1.03562919
H      -5.75234455    -1.68697504     1.64503325
H      -5.72278749    -0.87556652     0.08681823
H      -5.22201118    -0.00054651     1.54268820
14 
# or2: geometry number 26. N1-H10 distance: 1.65 
N      -2.48782849    -1.80507723     3.11057411
H      -3.02172667    -2.42028330     3.71303034
H      -2.44757539    -0.90426174     3.57258590
C      -1.14189813    -2.33505755     2.89199816
H      -0.59366520    -1.66139352     2.23089925
H      -1.21337273    -3.29842253     2.38383732
H      -0.54182161    -2.47714914     3.80176659
N      -3.82734654    -1.51147689     0.82758389
H      -3.29080389    -0.87275322     0.25257663
H      -3.31773885    -1.62317452     1.69612715
C      -5.16732175    -0.98072735     1.07849122
H      -5.72719575    -1.69248724     1.68789528
H      -5.69763869    -0.88107872     0.12968026
H      -5.19686238    -0.00605871     1.58555023
14 
# or2: geometry number 27. N1-H10 distance: 1.6 
N      -2.48782849    -1.80507723     3.11057411
H      -3.02172667    -2.42028330     3.71303034
H      -2.44757539    -0.90426174     3.57258590
C      -1.14189813    -2.33505755     2.89199816
H      -0.59366520    -1.66139352     2.23089925
H      -1.21337273    -3.29842253     2.38383732
H      -0.54182161    -2.47714914     3.80176659
N      -3.80219774    -1.51698909     0.87044592
H      -3.26565509    -0.87826542     0.29543866
H      -3.29259005    -1.62868672     1.73898918
C      -5.14217295    -0.98623955     1.12135325
H      -5.70204695    -1.69799944     1.73075731
H      -5.67248989    -0.88659092     0.17254229
H      -5.17171358    -0.01157091     1.62841226
14 
# or2: geometry number 28. N1-H10 distance: 1.55 
N      -2.48782849    -1.80507723     3.11057411
H      -3.02172667    -2.42028330     3.71303034
H      -2.44757539    -0.90426174     3.57258590
C      -1.14189813    -2.33505755     2.89199816
H      -0.59366520    -1.66139352     2.23089925
H      -1.21337273    -3.29842253     2.38383732
H      -0.54182161    -2.47714914     3.80176659
N      -3.77704894    -1.52250130     0.91330795
H      -3.24050629    -0.88377763     0.33830069
H      -3.26744125    -1.63419893     1.78185121
C      -5.11702415    -0.99175176     1.16421528
H      -5.67689815    -1.70351165     1.77361934
H      -5.64734109    -0.89210313     0.21540432
H      -5.14656478    -0.01708312     1.67127429
14 
# or2: geometry number 29. N1-H10 distance: 1.5 
N      -2.48782849    -1.80507723     3.11057411
H      -3.02172667    -2.42028330     3.71303034
H      -2.44757539    -0.90426174     3.57258590
C      -1.14189813    -2.33505755     2.89199816
H      -0.59366520    -1.66139352     2.23089925
H      -1.21337273    -3.29842253     2.38383732
H      -0.54182161    -2.47714914     3.80176659
N      -3.75190014    -1.52801350     0.95616998
H      -3.21535749    -0.88928983     0.38116272
H      -3.24229245    -1.63971113     1.82471324
C      -5.09187535    -0.99726396     1.20707731
H      -5.65174935    -1.70902385     1.81648137
H      -5.62219229    -0.89761533     0.25826635
H      -5.12141598    -0.02259532     1.71413632
14 
# or2: geometry number 30. N1-H10 distance: 1.45 
N      -2.48782849    -1.80507723     3.11057411
H      -3.02172667    -2.42028330     3.71303034
H      -2.44757539    -0.90426174     3.57258590
C      -1.14189813    -2.33505755     2.89199816
H      -0.59366520    -1.66139352     2.23089925
H      -1.21337273    -3.29842253     2.38383732
H      -0.54182161    -2.47714914     3.80176659
N      -3.72675134    -1.53352570     0.99903201
H      -3.19020869    -0.89480203     0.42402475
H      -3.21714365    -1.64522333     1.86757527
C      -5.06672655    -1.00277616     1.24993934
H      -5.62660055    -1.71453605     1.85934340
H      -5.59704349    -0.90312753     0.30112838
H      -5.09626718    -0.02810752     1.75699835
14 
# or2: geometry number 31. N1-H10 distance: 1.4 
N      -2.48782849    -1.80507723     3.11057411
H      -3.02172667    -2.42028330     3.71303034
H      -2.44757539    -0.90426174     3.57258590
C      -1.14189813    -2.33505755     2.89199816
H      -0.59366520    -1.66139352     2.23089925
H      -1.21337273    -3.29842253     2.38383732
H      -0.54182161    -2.47714914     3.80176659
N      -3.70160255    -1.53903791     1.04189404
H      -3.16505990    -0.90031424     0.46688678
H      -3.19199486    -1.65073554     1.91043730
C      -5.04157776    -1.00828837     1.29280137
H      -5.60145176    -1.72004826     1.90220543
H      -5.57189470    -0.90863974     0.34399041
H      -5.07111839    -0.03361973     1.79986038
14 
# or2: geometry number 32. N1-H10 distance: 1.35 
N      -2.48782849    -1.80507723     3.11057411
H      -3.02172667    -2.42028330     3.71303034
H      -2.44757539    -0.90426174     3.57258590
C      -1.14189813    -2.33505755     2.89199816
H      -0.59366520    -1.66139352     2.23089925
H      -1.21337273    -3.29842253     2.38383732
H      -0.54182161    -2.47714914     3.80176659
N      -3.67645375    -1.54455011     1.08475607
H      -3.13991110    -0.90582644     0.50974881
H      -3.16684606    -1.65624774     1.95329933
C      -5.01642896    -1.01380057     1.33566340
H      -5.57630296    -1.72556046     1.94506746
H      -5.54674590    -0.91415194     0.38685244
H      -5.04596959    -0.03913193     1.84272241
