14 
# or4: geometry number 1. N1-H14 distance: 11 
N      -4.20192288    -0.08527250     0.15105514
H      -4.80483660     0.64422825     0.51272209
H      -4.80203908    -0.76388391    -0.30269685
C      -3.23446985     0.46608471    -0.79774567
H      -2.59060897    -0.33677028    -1.16147821
H      -2.59457425     1.18420381    -0.28175465
H      -3.67130112     0.97011947    -1.67129466
N      -1.45846151    -6.46045711    10.91523113
H      -1.97882317    -5.67061027    11.27833580
H      -2.12469860    -7.05675119    10.43867547
C      -0.41377133    -6.01252733     9.99427267
H       0.13867548    -6.87999914     9.62858224
H       0.29532772    -5.38263031    10.53447302
H      -0.77045204    -5.44740281     9.12170542
14 
# or4: geometry number 2. N1-H14 distance: 10 
N      -4.20192288    -0.08527250     0.15105514
H      -4.80483660     0.64422825     0.51272209
H      -4.80203908    -0.76388391    -0.30269685
C      -3.23446985     0.46608471    -0.79774567
H      -2.59060897    -0.33677028    -1.16147821
H      -2.59457425     1.18420381    -0.28175465
H      -3.67130112     0.97011947    -1.67129466
N      -1.77041340    -5.97299072    10.09971746
H      -2.29077506    -5.18314388    10.46282213
H      -2.43665049    -6.56928480     9.62316180
C      -0.72572322    -5.52506094     9.17875900
H      -0.17327641    -6.39253275     8.81306857
H      -0.01662417    -4.89516392     9.71895935
H      -1.08240393    -4.95993642     8.30619175
14 
# or4: geometry number 3. N1-H14 distance: 9 
N      -4.20192288    -0.08527250     0.15105514
H      -4.80483660     0.64422825     0.51272209
H      -4.80203908    -0.76388391    -0.30269685
C      -3.23446985     0.46608471    -0.79774567
H      -2.59060897    -0.33677028    -1.16147821
H      -2.59457425     1.18420381    -0.28175465
H      -3.67130112     0.97011947    -1.67129466
N      -2.08236530    -5.48552433     9.28420380
H      -2.60272696    -4.69567749     9.64730847
H      -2.74860239    -6.08181841     8.80764814
C      -1.03767512    -5.03759455     8.36324534
H      -0.48522831    -5.90506636     7.99755491
H      -0.32857607    -4.40769753     8.90344569
H      -1.39435583    -4.47247003     7.49067809
14 
# or4: geometry number 4. N1-H14 distance: 8 
N      -4.20192288    -0.08527250     0.15105514
H      -4.80483660     0.64422825     0.51272209
H      -4.80203908    -0.76388391    -0.30269685
C      -3.23446985     0.46608471    -0.79774567
H      -2.59060897    -0.33677028    -1.16147821
H      -2.59457425     1.18420381    -0.28175465
H      -3.67130112     0.97011947    -1.67129466
N      -2.39431719    -4.99805794     8.46869014
H      -2.91467885    -4.20821110     8.83179481
H      -3.06055428    -5.59435202     7.99213448
C      -1.34962701    -4.55012816     7.54773168
H      -0.79718020    -5.41759997     7.18204125
H      -0.64052796    -3.92023114     8.08793203
H      -1.70630772    -3.98500364     6.67516443
14 
# or4: geometry number 5. N1-H14 distance: 7 
N      -4.20192288    -0.08527250     0.15105514
H      -4.80483660     0.64422825     0.51272209
H      -4.80203908    -0.76388391    -0.30269685
C      -3.23446985     0.46608471    -0.79774567
H      -2.59060897    -0.33677028    -1.16147821
H      -2.59457425     1.18420381    -0.28175465
H      -3.67130112     0.97011947    -1.67129466
N      -2.70626909    -4.51059154     7.65317648
H      -3.22663075    -3.72074470     8.01628115
H      -3.37250618    -5.10688562     7.17662082
C      -1.66157891    -4.06266176     6.73221802
H      -1.10913210    -4.93013357     6.36652759
H      -0.95247986    -3.43276474     7.27241837
H      -2.01825962    -3.49753724     5.85965077
14 
# or4: geometry number 6. N1-H14 distance: 6 
N      -4.20192288    -0.08527250     0.15105514
H      -4.80483660     0.64422825     0.51272209
H      -4.80203908    -0.76388391    -0.30269685
C      -3.23446985     0.46608471    -0.79774567
H      -2.59060897    -0.33677028    -1.16147821
H      -2.59457425     1.18420381    -0.28175465
H      -3.67130112     0.97011947    -1.67129466
N      -3.01822098    -4.02312515     6.83766282
H      -3.53858264    -3.23327831     7.20076749
H      -3.68445807    -4.61941923     6.36110716
C      -1.97353080    -3.57519537     5.91670436
H      -1.42108399    -4.44266718     5.55101393
H      -1.26443175    -2.94529835     6.45690471
H      -2.33021151    -3.01007085     5.04413711
14 
# or4: geometry number 7. N1-H14 distance: 5 
N      -4.20192288    -0.08527250     0.15105514
H      -4.80483660     0.64422825     0.51272209
H      -4.80203908    -0.76388391    -0.30269685
C      -3.23446985     0.46608471    -0.79774567
H      -2.59060897    -0.33677028    -1.16147821
H      -2.59457425     1.18420381    -0.28175465
H      -3.67130112     0.97011947    -1.67129466
N      -3.33017288    -3.53565876     6.02214916
H      -3.85053454    -2.74581192     6.38525383
H      -3.99640997    -4.13195284     5.54559350
C      -2.28548270    -3.08772898     5.10119070
H      -1.73303589    -3.95520079     4.73550027
H      -1.57638365    -2.45783196     5.64139105
H      -2.64216341    -2.52260446     4.22862345
14 
# or4: geometry number 8. N1-H14 distance: 4.5 
N      -4.20192288    -0.08527250     0.15105514
H      -4.80483660     0.64422825     0.51272209
H      -4.80203908    -0.76388391    -0.30269685
C      -3.23446985     0.46608471    -0.79774567
H      -2.59060897    -0.33677028    -1.16147821
H      -2.59457425     1.18420381    -0.28175465
H      -3.67130112     0.97011947    -1.67129466
N      -3.48614882    -3.29192556     5.61439233
H      -4.00651048    -2.50207872     5.97749700
H      -4.15238591    -3.88821964     5.13783667
C      -2.44145864    -2.84399578     4.69343387
H      -1.88901183    -3.71146759     4.32774344
H      -1.73235959    -2.21409876     5.23363422
H      -2.79813935    -2.27887126     3.82086662
14 
# or4: geometry number 9. N1-H14 distance: 4 
N      -4.20192288    -0.08527250     0.15105514
H      -4.80483660     0.64422825     0.51272209
H      -4.80203908    -0.76388391    -0.30269685
C      -3.23446985     0.46608471    -0.79774567
H      -2.59060897    -0.33677028    -1.16147821
H      -2.59457425     1.18420381    -0.28175465
H      -3.67130112     0.97011947    -1.67129466
N      -3.64212477    -3.04819237     5.20663550
H      -4.16248643    -2.25834553     5.56974017
H      -4.30836186    -3.64448645     4.73007984
C      -2.59743459    -2.60026259     4.28567704
H      -2.04498778    -3.46773440     3.91998661
H      -1.88833554    -1.97036557     4.82587739
H      -2.95411530    -2.03513807     3.41310979
14 
# or4: geometry number 10. N1-H14 distance: 3.7 
N      -4.20192288    -0.08527250     0.15105514
H      -4.80483660     0.64422825     0.51272209
H      -4.80203908    -0.76388391    -0.30269685
C      -3.23446985     0.46608471    -0.79774567
H      -2.59060897    -0.33677028    -1.16147821
H      -2.59457425     1.18420381    -0.28175465
H      -3.67130112     0.97011947    -1.67129466
N      -3.73571034    -2.90195245     4.96198140
H      -4.25607200    -2.11210561     5.32508607
H      -4.40194743    -3.49824653     4.48542574
C      -2.69102016    -2.45402267     4.04102294
H      -2.13857335    -3.32149448     3.67533251
H      -1.98192111    -1.82412565     4.58122329
H      -3.04770087    -1.88889815     3.16845569
14 
# or4: geometry number 11. N1-H14 distance: 3.4 
N      -4.20192288    -0.08527250     0.15105514
H      -4.80483660     0.64422825     0.51272209
H      -4.80203908    -0.76388391    -0.30269685
C      -3.23446985     0.46608471    -0.79774567
H      -2.59060897    -0.33677028    -1.16147821
H      -2.59457425     1.18420381    -0.28175465
H      -3.67130112     0.97011947    -1.67129466
N      -3.82929591    -2.75571253     4.71732730
H      -4.34965757    -1.96586569     5.08043197
H      -4.49553300    -3.35200661     4.24077164
C      -2.78460573    -2.30778275     3.79636884
H      -2.23215892    -3.17525456     3.43067841
H      -2.07550668    -1.67788573     4.33656919
H      -3.14128644    -1.74265823     2.92380159
14 
# or4: geometry number 12. N1-H14 distance: 3.1 
N      -4.20192288    -0.08527250     0.15105514
H      -4.80483660     0.64422825     0.51272209
H      -4.80203908    -0.76388391    -0.30269685
C      -3.23446985     0.46608471    -0.79774567
H      -2.59060897    -0.33677028    -1.16147821
H      -2.59457425     1.18420381    -0.28175465
H      -3.67130112     0.97011947    -1.67129466
N      -3.92288148    -2.60947262     4.47267320
H      -4.44324314    -1.81962578     4.83577787
H      -4.58911857    -3.20576670     3.99611754
C      -2.87819130    -2.16154284     3.55171474
H      -2.32574449    -3.02901465     3.18602431
H      -2.16909225    -1.53164582     4.09191509
H      -3.23487201    -1.59641832     2.67914749
14 
# or4: geometry number 13. N1-H14 distance: 2.9 
N      -4.20192288    -0.08527250     0.15105514
H      -4.80483660     0.64422825     0.51272209
H      -4.80203908    -0.76388391    -0.30269685
C      -3.23446985     0.46608471    -0.79774567
H      -2.59060897    -0.33677028    -1.16147821
H      -2.59457425     1.18420381    -0.28175465
H      -3.67130112     0.97011947    -1.67129466
N      -3.98527186    -2.51197934     4.30957047
H      -4.50563352    -1.72213250     4.67267514
H      -4.65150895    -3.10827342     3.83301481
C      -2.94058168    -2.06404956     3.38861201
H      -2.38813487    -2.93152137     3.02292158
H      -2.23148263    -1.43415254     3.92881236
H      -3.29726239    -1.49892504     2.51604476
14 
# or4: geometry number 14. N1-H14 distance: 2.8 
N      -4.20192288    -0.08527250     0.15105514
H      -4.80483660     0.64422825     0.51272209
H      -4.80203908    -0.76388391    -0.30269685
C      -3.23446985     0.46608471    -0.79774567
H      -2.59060897    -0.33677028    -1.16147821
H      -2.59457425     1.18420381    -0.28175465
H      -3.67130112     0.97011947    -1.67129466
N      -4.01646705    -2.46323270     4.22801910
H      -4.53682871    -1.67338586     4.59112377
H      -4.68270414    -3.05952678     3.75146344
C      -2.97177687    -2.01530292     3.30706064
H      -2.41933006    -2.88277473     2.94137021
H      -2.26267782    -1.38540590     3.84726099
H      -3.32845758    -1.45017840     2.43449339
14 
# or4: geometry number 15. N1-H14 distance: 2.7 
N      -4.20192288    -0.08527250     0.15105514
H      -4.80483660     0.64422825     0.51272209
H      -4.80203908    -0.76388391    -0.30269685
C      -3.23446985     0.46608471    -0.79774567
H      -2.59060897    -0.33677028    -1.16147821
H      -2.59457425     1.18420381    -0.28175465
H      -3.67130112     0.97011947    -1.67129466
N      -4.04766223    -2.41448606     4.14646774
H      -4.56802389    -1.62463922     4.50957241
H      -4.71389932    -3.01078014     3.66991208
C      -3.00297205    -1.96655628     3.22550928
H      -2.45052524    -2.83402809     2.85981885
H      -2.29387300    -1.33665926     3.76570963
H      -3.35965276    -1.40143176     2.35294203
14 
# or4: geometry number 16. N1-H14 distance: 2.6 
N      -4.20192288    -0.08527250     0.15105514
H      -4.80483660     0.64422825     0.51272209
H      -4.80203908    -0.76388391    -0.30269685
C      -3.23446985     0.46608471    -0.79774567
H      -2.59060897    -0.33677028    -1.16147821
H      -2.59457425     1.18420381    -0.28175465
H      -3.67130112     0.97011947    -1.67129466
N      -4.07885742    -2.36573942     4.06491637
H      -4.59921908    -1.57589258     4.42802104
H      -4.74509451    -2.96203350     3.58836071
C      -3.03416724    -1.91780964     3.14395791
H      -2.48172043    -2.78528145     2.77826748
H      -2.32506819    -1.28791262     3.68415826
H      -3.39084795    -1.35268512     2.27139066
14 
# or4: geometry number 17. N1-H14 distance: 2.5 
N      -4.20192288    -0.08527250     0.15105514
H      -4.80483660     0.64422825     0.51272209
H      -4.80203908    -0.76388391    -0.30269685
C      -3.23446985     0.46608471    -0.79774567
H      -2.59060897    -0.33677028    -1.16147821
H      -2.59457425     1.18420381    -0.28175465
H      -3.67130112     0.97011947    -1.67129466
N      -4.11005261    -2.31699278     3.98336500
H      -4.63041427    -1.52714594     4.34646967
H      -4.77628970    -2.91328686     3.50680934
C      -3.06536243    -1.86906300     3.06240654
H      -2.51291562    -2.73653481     2.69671611
H      -2.35626338    -1.23916598     3.60260689
H      -3.42204314    -1.30393848     2.18983929
14 
# or4: geometry number 18. N1-H14 distance: 2.4 
N      -4.20192288    -0.08527250     0.15105514
H      -4.80483660     0.64422825     0.51272209
H      -4.80203908    -0.76388391    -0.30269685
C      -3.23446985     0.46608471    -0.79774567
H      -2.59060897    -0.33677028    -1.16147821
H      -2.59457425     1.18420381    -0.28175465
H      -3.67130112     0.97011947    -1.67129466
N      -4.14124780    -2.26824614     3.90181364
H      -4.66160946    -1.47839930     4.26491831
H      -4.80748489    -2.86454022     3.42525798
C      -3.09655762    -1.82031636     2.98085518
H      -2.54411081    -2.68778817     2.61516475
H      -2.38745857    -1.19041934     3.52105553
H      -3.45323833    -1.25519184     2.10828793
14 
# or4: geometry number 19. N1-H14 distance: 2.3 
N      -4.20192288    -0.08527250     0.15105514
H      -4.80483660     0.64422825     0.51272209
H      -4.80203908    -0.76388391    -0.30269685
C      -3.23446985     0.46608471    -0.79774567
H      -2.59060897    -0.33677028    -1.16147821
H      -2.59457425     1.18420381    -0.28175465
H      -3.67130112     0.97011947    -1.67129466
N      -4.17244299    -2.21949950     3.82026227
H      -4.69280465    -1.42965266     4.18336694
H      -4.83868008    -2.81579358     3.34370661
C      -3.12775281    -1.77156972     2.89930381
H      -2.57530600    -2.63904153     2.53361338
H      -2.41865376    -1.14167270     3.43950416
H      -3.48443352    -1.20644520     2.02673656
14 
# or4: geometry number 20. N1-H14 distance: 2.2 
N      -4.20192288    -0.08527250     0.15105514
H      -4.80483660     0.64422825     0.51272209
H      -4.80203908    -0.76388391    -0.30269685
C      -3.23446985     0.46608471    -0.79774567
H      -2.59060897    -0.33677028    -1.16147821
H      -2.59457425     1.18420381    -0.28175465
H      -3.67130112     0.97011947    -1.67129466
N      -4.20363818    -2.17075286     3.73871091
H      -4.72399984    -1.38090602     4.10181558
H      -4.86987527    -2.76704694     3.26215525
C      -3.15894800    -1.72282308     2.81775245
H      -2.60650119    -2.59029489     2.45206202
H      -2.44984895    -1.09292606     3.35795280
H      -3.51562871    -1.15769856     1.94518520
14 
# or4: geometry number 21. N1-H14 distance: 2.1 
N      -4.20192288    -0.08527250     0.15105514
H      -4.80483660     0.64422825     0.51272209
H      -4.80203908    -0.76388391    -0.30269685
C      -3.23446985     0.46608471    -0.79774567
H      -2.59060897    -0.33677028    -1.16147821
H      -2.59457425     1.18420381    -0.28175465
H      -3.67130112     0.97011947    -1.67129466
N      -4.23483337    -2.12200622     3.65715954
H      -4.75519503    -1.33215938     4.02026421
H      -4.90107046    -2.71830030     3.18060388
C      -3.19014319    -1.67407644     2.73620108
H      -2.63769638    -2.54154825     2.37051065
H      -2.48104414    -1.04417942     3.27640143
H      -3.54682390    -1.10895192     1.86363383
14 
# or4: geometry number 22. N1-H14 distance: 2.05 
N      -4.20192288    -0.08527250     0.15105514
H      -4.80483660     0.64422825     0.51272209
H      -4.80203908    -0.76388391    -0.30269685
C      -3.23446985     0.46608471    -0.79774567
H      -2.59060897    -0.33677028    -1.16147821
H      -2.59457425     1.18420381    -0.28175465
H      -3.67130112     0.97011947    -1.67129466
N      -4.25043097    -2.09763290     3.61638386
H      -4.77079263    -1.30778606     3.97948853
H      -4.91666806    -2.69392698     3.13982820
C      -3.20574079    -1.64970312     2.69542540
H      -2.65329398    -2.51717493     2.32973497
H      -2.49664174    -1.01980610     3.23562575
H      -3.56242150    -1.08457860     1.82285815
14 
# or4: geometry number 23. N1-H14 distance: 2.0 
N      -4.20192288    -0.08527250     0.15105514
H      -4.80483660     0.64422825     0.51272209
H      -4.80203908    -0.76388391    -0.30269685
C      -3.23446985     0.46608471    -0.79774567
H      -2.59060897    -0.33677028    -1.16147821
H      -2.59457425     1.18420381    -0.28175465
H      -3.67130112     0.97011947    -1.67129466
N      -4.26602856    -2.07325958     3.57560817
H      -4.78639022    -1.28341274     3.93871284
H      -4.93226565    -2.66955366     3.09905251
C      -3.22133838    -1.62532980     2.65464971
H      -2.66889157    -2.49280161     2.28895928
H      -2.51223933    -0.99543278     3.19485006
H      -3.57801909    -1.06020528     1.78208246
14 
# or4: geometry number 24. N1-H14 distance: 1.95 
N      -4.20192288    -0.08527250     0.15105514
H      -4.80483660     0.64422825     0.51272209
H      -4.80203908    -0.76388391    -0.30269685
C      -3.23446985     0.46608471    -0.79774567
H      -2.59060897    -0.33677028    -1.16147821
H      -2.59457425     1.18420381    -0.28175465
H      -3.67130112     0.97011947    -1.67129466
N      -4.28162616    -2.04888626     3.53483249
H      -4.80198782    -1.25903942     3.89793716
H      -4.94786325    -2.64518034     3.05827683
C      -3.23693598    -1.60095648     2.61387403
H      -2.68448917    -2.46842829     2.24818360
H      -2.52783693    -0.97105946     3.15407438
H      -3.59361669    -1.03583196     1.74130678
14 
# or4: geometry number 25. N1-H14 distance: 1.9 
N      -4.20192288    -0.08527250     0.15105514
H      -4.80483660     0.64422825     0.51272209
H      -4.80203908    -0.76388391    -0.30269685
C      -3.23446985     0.46608471    -0.79774567
H      -2.59060897    -0.33677028    -1.16147821
H      -2.59457425     1.18420381    -0.28175465
H      -3.67130112     0.97011947    -1.67129466
N      -4.29722375    -2.02451295     3.49405681
H      -4.81758541    -1.23466611     3.85716148
H      -4.96346084    -2.62080703     3.01750115
C      -3.25253357    -1.57658317     2.57309835
H      -2.70008676    -2.44405498     2.20740792
H      -2.54343452    -0.94668615     3.11329870
H      -3.60921428    -1.01145865     1.70053110
14 
# or4: geometry number 26. N1-H14 distance: 1.85 
N      -4.20192288    -0.08527250     0.15105514
H      -4.80483660     0.64422825     0.51272209
H      -4.80203908    -0.76388391    -0.30269685
C      -3.23446985     0.46608471    -0.79774567
H      -2.59060897    -0.33677028    -1.16147821
H      -2.59457425     1.18420381    -0.28175465
H      -3.67130112     0.97011947    -1.67129466
N      -4.31282135    -2.00013963     3.45328112
H      -4.83318301    -1.21029279     3.81638579
H      -4.97905844    -2.59643371     2.97672546
C      -3.26813117    -1.55220985     2.53232266
H      -2.71568436    -2.41968166     2.16663223
H      -2.55903212    -0.92231283     3.07252301
H      -3.62481188    -0.98708533     1.65975541
14 
# or4: geometry number 27. N1-H14 distance: 1.8 
N      -4.20192288    -0.08527250     0.15105514
H      -4.80483660     0.64422825     0.51272209
H      -4.80203908    -0.76388391    -0.30269685
C      -3.23446985     0.46608471    -0.79774567
H      -2.59060897    -0.33677028    -1.16147821
H      -2.59457425     1.18420381    -0.28175465
H      -3.67130112     0.97011947    -1.67129466
N      -4.32841894    -1.97576631     3.41250544
H      -4.84878060    -1.18591947     3.77561011
H      -4.99465603    -2.57206039     2.93594978
C      -3.28372876    -1.52783653     2.49154698
H      -2.73128195    -2.39530834     2.12585655
H      -2.57462971    -0.89793951     3.03174733
H      -3.64040947    -0.96271201     1.61897973
14 
# or4: geometry number 28. N1-H14 distance: 1.75 
N      -4.20192288    -0.08527250     0.15105514
H      -4.80483660     0.64422825     0.51272209
H      -4.80203908    -0.76388391    -0.30269685
C      -3.23446985     0.46608471    -0.79774567
H      -2.59060897    -0.33677028    -1.16147821
H      -2.59457425     1.18420381    -0.28175465
H      -3.67130112     0.97011947    -1.67129466
N      -4.34401653    -1.95139299     3.37172976
H      -4.86437819    -1.16154615     3.73483443
H      -5.01025362    -2.54768707     2.89517410
C      -3.29932635    -1.50346321     2.45077130
H      -2.74687954    -2.37093502     2.08508087
H      -2.59022730    -0.87356619     2.99097165
H      -3.65600706    -0.93833869     1.57820405
14 
# or4: geometry number 29. N1-H14 distance: 1.7 
N      -4.20192288    -0.08527250     0.15105514
H      -4.80483660     0.64422825     0.51272209
H      -4.80203908    -0.76388391    -0.30269685
C      -3.23446985     0.46608471    -0.79774567
H      -2.59060897    -0.33677028    -1.16147821
H      -2.59457425     1.18420381    -0.28175465
H      -3.67130112     0.97011947    -1.67129466
N      -4.35961413    -1.92701967     3.33095407
H      -4.87997579    -1.13717283     3.69405874
H      -5.02585122    -2.52331375     2.85439841
C      -3.31492395    -1.47908989     2.40999561
H      -2.76247714    -2.34656170     2.04430518
H      -2.60582490    -0.84919287     2.95019596
H      -3.67160466    -0.91396537     1.53742836
14 
# or4: geometry number 30. N1-H14 distance: 1.65 
N      -4.20192288    -0.08527250     0.15105514
H      -4.80483660     0.64422825     0.51272209
H      -4.80203908    -0.76388391    -0.30269685
C      -3.23446985     0.46608471    -0.79774567
H      -2.59060897    -0.33677028    -1.16147821
H      -2.59457425     1.18420381    -0.28175465
H      -3.67130112     0.97011947    -1.67129466
N      -4.37521172    -1.90264635     3.29017839
H      -4.89557338    -1.11279951     3.65328306
H      -5.04144881    -2.49894043     2.81362273
C      -3.33052154    -1.45471657     2.36921993
H      -2.77807473    -2.32218838     2.00352950
H      -2.62142249    -0.82481955     2.90942028
H      -3.68720225    -0.88959205     1.49665268
14 
# or4: geometry number 31. N1-H14 distance: 1.6 
N      -4.20192288    -0.08527250     0.15105514
H      -4.80483660     0.64422825     0.51272209
H      -4.80203908    -0.76388391    -0.30269685
C      -3.23446985     0.46608471    -0.79774567
H      -2.59060897    -0.33677028    -1.16147821
H      -2.59457425     1.18420381    -0.28175465
H      -3.67130112     0.97011947    -1.67129466
N      -4.39080932    -1.87827303     3.24940271
H      -4.91117098    -1.08842619     3.61250738
H      -5.05704641    -2.47456711     2.77284705
C      -3.34611914    -1.43034325     2.32844425
H      -2.79367233    -2.29781506     1.96275382
H      -2.63702009    -0.80044623     2.86864460
H      -3.70279985    -0.86521873     1.45587700
14 
# or4: geometry number 32. N1-H14 distance: 1.55 
N      -4.20192288    -0.08527250     0.15105514
H      -4.80483660     0.64422825     0.51272209
H      -4.80203908    -0.76388391    -0.30269685
C      -3.23446985     0.46608471    -0.79774567
H      -2.59060897    -0.33677028    -1.16147821
H      -2.59457425     1.18420381    -0.28175465
H      -3.67130112     0.97011947    -1.67129466
N      -4.40640691    -1.85389971     3.20862703
H      -4.92676857    -1.06405287     3.57173170
H      -5.07264400    -2.45019379     2.73207137
C      -3.36171673    -1.40596993     2.28766857
H      -2.80926992    -2.27344174     1.92197814
H      -2.65261768    -0.77607291     2.82786892
H      -3.71839744    -0.84084541     1.41510132
14 
# or4: geometry number 33. N1-H14 distance: 1.5 
N      -4.20192288    -0.08527250     0.15105514
H      -4.80483660     0.64422825     0.51272209
H      -4.80203908    -0.76388391    -0.30269685
C      -3.23446985     0.46608471    -0.79774567
H      -2.59060897    -0.33677028    -1.16147821
H      -2.59457425     1.18420381    -0.28175465
H      -3.67130112     0.97011947    -1.67129466
N      -4.42200451    -1.82952639     3.16785134
H      -4.94236617    -1.03967955     3.53095601
H      -5.08824160    -2.42582047     2.69129568
C      -3.37731433    -1.38159661     2.24689288
H      -2.82486752    -2.24906842     1.88120245
H      -2.66821528    -0.75169959     2.78709323
H      -3.73399504    -0.81647209     1.37432563
