14 
# or7: geometry number 1. H2-H13 distance: 10 
N      -2.82364642     0.15393456    -1.88140707
H      -2.72544579    -0.56741639    -1.17678751
H      -3.16731158    -0.29954172    -2.71973712
C      -3.75484529     1.19009767    -1.43484489
H      -3.83226856     1.95953201    -2.20517648
H      -3.35611272     1.66941512    -0.53892342
H      -4.77071764     0.83866248    -1.20580969
N      -0.51323529    -9.90845913     5.60149931
H       0.41578525    -9.56876458     5.38239264
H      -0.40393967   -10.62804891     6.30633178
C      -1.35770844    -8.82192499     6.09797873
H      -2.35425901    -9.21151981     6.31370342
H      -1.46828844    -8.06742582     5.31701060
H      -0.98886366    -8.31918980     7.00305956
14 
# or7: geometry number 2. H2-H13 distance: 8 
N      -2.82364642     0.15393456    -1.88140707
H      -2.72544579    -0.56741639    -1.17678751
H      -3.16731158    -0.29954172    -2.71973712
C      -3.75484529     1.19009767    -1.43484489
H      -3.83226856     1.95953201    -2.20517648
H      -3.35611272     1.66941512    -0.53892342
H      -4.77071764     0.83866248    -1.20580969
N      -0.76466676    -8.40845725     4.30273969
H       0.16435378    -8.06876270     4.08363302
H      -0.65537114    -9.12804703     5.00757216
C      -1.60913991    -7.32192311     4.79921911
H      -2.60569048    -7.71151793     5.01494380
H      -1.71971991    -6.56742394     4.01825098
H      -1.24029513    -6.81918792     5.70429994
14 
# or7: geometry number 3. H2-H13 distance: 6 
N      -2.82364642     0.15393456    -1.88140707
H      -2.72544579    -0.56741639    -1.17678751
H      -3.16731158    -0.29954172    -2.71973712
C      -3.75484529     1.19009767    -1.43484489
H      -3.83226856     1.95953201    -2.20517648
H      -3.35611272     1.66941512    -0.53892342
H      -4.77071764     0.83866248    -1.20580969
N      -1.01609823    -6.90845536     3.00398007
H      -0.08707769    -6.56876081     2.78487340
H      -0.90680261    -7.62804514     3.70881254
C      -1.86057138    -5.82192122     3.50045949
H      -2.85712195    -6.21151604     3.71618418
H      -1.97115138    -5.06742205     2.71949136
H      -1.49172660    -5.31918603     4.40554032
14 
# or7: geometry number 4. H2-H13 distance: 5 
N      -2.82364642     0.15393456    -1.88140707
H      -2.72544579    -0.56741639    -1.17678751
H      -3.16731158    -0.29954172    -2.71973712
C      -3.75484529     1.19009767    -1.43484489
H      -3.83226856     1.95953201    -2.20517648
H      -3.35611272     1.66941512    -0.53892342
H      -4.77071764     0.83866248    -1.20580969
N      -1.14181396    -6.15845442     2.35460026
H      -0.21279342    -5.81875987     2.13549359
H      -1.03251834    -6.87804420     3.05943273
C      -1.98628711    -5.07192028     2.85107968
H      -2.98283768    -5.46151510     3.06680437
H      -2.09686711    -4.31742111     2.07011155
H      -1.61744233    -4.56918509     3.75616051
14 
# or7: geometry number 5. H2-H13 distance: 4.5 
N      -2.82364642     0.15393456    -1.88140707
H      -2.72544579    -0.56741639    -1.17678751
H      -3.16731158    -0.29954172    -2.71973712
C      -3.75484529     1.19009767    -1.43484489
H      -3.83226856     1.95953201    -2.20517648
H      -3.35611272     1.66941512    -0.53892342
H      -4.77071764     0.83866248    -1.20580969
N      -1.20467183    -5.78345394     2.02991035
H      -0.27565129    -5.44375939     1.81080368
H      -1.09537621    -6.50304372     2.73474282
C      -2.04914498    -4.69691980     2.52638977
H      -3.04569555    -5.08651462     2.74211446
H      -2.15972498    -3.94242063     1.74542164
H      -1.68030020    -4.19418461     3.43147060
14 
# or7: geometry number 6. H2-H13 distance: 4 
N      -2.82364642     0.15393456    -1.88140707
H      -2.72544579    -0.56741639    -1.17678751
H      -3.16731158    -0.29954172    -2.71973712
C      -3.75484529     1.19009767    -1.43484489
H      -3.83226856     1.95953201    -2.20517648
H      -3.35611272     1.66941512    -0.53892342
H      -4.77071764     0.83866248    -1.20580969
N      -1.26752970    -5.40845347     1.70522044
H      -0.33850916    -5.06875892     1.48611377
H      -1.15823408    -6.12804325     2.41005291
C      -2.11200285    -4.32191933     2.20169986
H      -3.10855342    -4.71151415     2.41742455
H      -2.22258285    -3.56742016     1.42073173
H      -1.74315807    -3.81918414     3.10678069
14 
# or7: geometry number 7. H2-H13 distance: 3.7 
N      -2.82364642     0.15393456    -1.88140707
H      -2.72544579    -0.56741639    -1.17678751
H      -3.16731158    -0.29954172    -2.71973712
C      -3.75484529     1.19009767    -1.43484489
H      -3.83226856     1.95953201    -2.20517648
H      -3.35611272     1.66941512    -0.53892342
H      -4.77071764     0.83866248    -1.20580969
N      -1.30524442    -5.18345319     1.51040650
H      -0.37622388    -4.84375864     1.29129983
H      -1.19594880    -5.90304297     2.21523897
C      -2.14971757    -4.09691905     2.00688592
H      -3.14626814    -4.48651387     2.22261061
H      -2.26029757    -3.34241988     1.22591779
H      -1.78087279    -3.59418386     2.91196675
14 
# or7: geometry number 8. H2-H13 distance: 3.4 
N      -2.82364642     0.15393456    -1.88140707
H      -2.72544579    -0.56741639    -1.17678751
H      -3.16731158    -0.29954172    -2.71973712
C      -3.75484529     1.19009767    -1.43484489
H      -3.83226856     1.95953201    -2.20517648
H      -3.35611272     1.66941512    -0.53892342
H      -4.77071764     0.83866248    -1.20580969
N      -1.34295914    -4.95845291     1.31559256
H      -0.41393860    -4.61875836     1.09648589
H      -1.23366352    -5.67804269     2.02042503
C      -2.18743229    -3.87191877     1.81207198
H      -3.18398286    -4.26151359     2.02779667
H      -2.29801229    -3.11741960     1.03110385
H      -1.81858751    -3.36918358     2.71715281
14 
# or7: geometry number 9. H2-H13 distance: 3.1 
N      -2.82364642     0.15393456    -1.88140707
H      -2.72544579    -0.56741639    -1.17678751
H      -3.16731158    -0.29954172    -2.71973712
C      -3.75484529     1.19009767    -1.43484489
H      -3.83226856     1.95953201    -2.20517648
H      -3.35611272     1.66941512    -0.53892342
H      -4.77071764     0.83866248    -1.20580969
N      -1.38067386    -4.73345262     1.12077861
H      -0.45165332    -4.39375807     0.90167194
H      -1.27137824    -5.45304240     1.82561108
C      -2.22514701    -3.64691848     1.61725803
H      -3.22169758    -4.03651330     1.83298272
H      -2.33572701    -2.89241931     0.83628990
H      -1.85630223    -3.14418329     2.52233886
14 
# or7: geometry number 10. H2-H13 distance: 2.9 
N      -2.82364642     0.15393456    -1.88140707
H      -2.72544579    -0.56741639    -1.17678751
H      -3.16731158    -0.29954172    -2.71973712
C      -3.75484529     1.19009767    -1.43484489
H      -3.83226856     1.95953201    -2.20517648
H      -3.35611272     1.66941512    -0.53892342
H      -4.77071764     0.83866248    -1.20580969
N      -1.40581701    -4.58345244     0.99090265
H      -0.47679647    -4.24375789     0.77179598
H      -1.29652139    -5.30304222     1.69573512
C      -2.25029016    -3.49691830     1.48738207
H      -3.24684073    -3.88651312     1.70310676
H      -2.36087016    -2.74241913     0.70641394
H      -1.88144538    -2.99418311     2.39246290
14 
# or7: geometry number 11. H2-H13 distance: 2.7 
N      -2.82364642     0.15393456    -1.88140707
H      -2.72544579    -0.56741639    -1.17678751
H      -3.16731158    -0.29954172    -2.71973712
C      -3.75484529     1.19009767    -1.43484489
H      -3.83226856     1.95953201    -2.20517648
H      -3.35611272     1.66941512    -0.53892342
H      -4.77071764     0.83866248    -1.20580969
N      -1.43096015    -4.43345225     0.86102669
H      -0.50193961    -4.09375770     0.64192002
H      -1.32166453    -5.15304203     1.56585916
C      -2.27543330    -3.34691811     1.35750611
H      -3.27198387    -3.73651293     1.57323080
H      -2.38601330    -2.59241894     0.57653798
H      -1.90658852    -2.84418292     2.26258694
14 
# or7: geometry number 12. H2-H13 distance: 2.5 
N      -2.82364642     0.15393456    -1.88140707
H      -2.72544579    -0.56741639    -1.17678751
H      -3.16731158    -0.29954172    -2.71973712
C      -3.75484529     1.19009767    -1.43484489
H      -3.83226856     1.95953201    -2.20517648
H      -3.35611272     1.66941512    -0.53892342
H      -4.77071764     0.83866248    -1.20580969
N      -1.45610330    -4.28345206     0.73115073
H      -0.52708276    -3.94375751     0.51204406
H      -1.34680768    -5.00304184     1.43598320
C      -2.30057645    -3.19691792     1.22763015
H      -3.29712702    -3.58651274     1.44335484
H      -2.41115645    -2.44241875     0.44666202
H      -1.93173167    -2.69418273     2.13271098
14 
# or7: geometry number 13. H2-H13 distance: 2.3 
N      -2.82364642     0.15393456    -1.88140707
H      -2.72544579    -0.56741639    -1.17678751
H      -3.16731158    -0.29954172    -2.71973712
C      -3.75484529     1.19009767    -1.43484489
H      -3.83226856     1.95953201    -2.20517648
H      -3.35611272     1.66941512    -0.53892342
H      -4.77071764     0.83866248    -1.20580969
N      -1.48124645    -4.13345187     0.60127477
H      -0.55222591    -3.79375732     0.38216810
H      -1.37195083    -4.85304165     1.30610724
C      -2.32571960    -3.04691773     1.09775419
H      -3.32227017    -3.43651255     1.31347888
H      -2.43629960    -2.29241856     0.31678606
H      -1.95687482    -2.54418254     2.00283502
14 
# or7: geometry number 14. H2-H13 distance: 2.1 
N      -2.82364642     0.15393456    -1.88140707
H      -2.72544579    -0.56741639    -1.17678751
H      -3.16731158    -0.29954172    -2.71973712
C      -3.75484529     1.19009767    -1.43484489
H      -3.83226856     1.95953201    -2.20517648
H      -3.35611272     1.66941512    -0.53892342
H      -4.77071764     0.83866248    -1.20580969
N      -1.50638960    -3.98345168     0.47139880
H      -0.57736906    -3.64375713     0.25229213
H      -1.39709398    -4.70304146     1.17623127
C      -2.35086275    -2.89691754     0.96787822
H      -3.34741332    -3.28651236     1.18360291
H      -2.46144275    -2.14241837     0.18691009
H      -1.98201797    -2.39418235     1.87295905
14 
# or7: geometry number 15. H2-H13 distance: 2.0 
N      -2.82364642     0.15393456    -1.88140707
H      -2.72544579    -0.56741639    -1.17678751
H      -3.16731158    -0.29954172    -2.71973712
C      -3.75484529     1.19009767    -1.43484489
H      -3.83226856     1.95953201    -2.20517648
H      -3.35611272     1.66941512    -0.53892342
H      -4.77071764     0.83866248    -1.20580969
N      -1.51896117    -3.90845159     0.40646082
H      -0.58994063    -3.56875704     0.18735415
H      -1.40966555    -4.62804137     1.11129329
C      -2.36343432    -2.82191745     0.90294024
H      -3.35998489    -3.21151227     1.11866493
H      -2.47401432    -2.06741828     0.12197211
H      -1.99458954    -2.31918226     1.80802107
14 
# or7: geometry number 16. H2-H13 distance: 1.9 
N      -2.82364642     0.15393456    -1.88140707
H      -2.72544579    -0.56741639    -1.17678751
H      -3.16731158    -0.29954172    -2.71973712
C      -3.75484529     1.19009767    -1.43484489
H      -3.83226856     1.95953201    -2.20517648
H      -3.35611272     1.66941512    -0.53892342
H      -4.77071764     0.83866248    -1.20580969
N      -1.53153274    -3.83345149     0.34152284
H      -0.60251220    -3.49375694     0.12241617
H      -1.42223712    -4.55304127     1.04635531
C      -2.37600589    -2.74691735     0.83800226
H      -3.37255646    -3.13651217     1.05372695
H      -2.48658589    -1.99241818     0.05703413
H      -2.00716111    -2.24418216     1.74308309
14 
# or7: geometry number 17. H2-H13 distance: 1.8 
N      -2.82364642     0.15393456    -1.88140707
H      -2.72544579    -0.56741639    -1.17678751
H      -3.16731158    -0.29954172    -2.71973712
C      -3.75484529     1.19009767    -1.43484489
H      -3.83226856     1.95953201    -2.20517648
H      -3.35611272     1.66941512    -0.53892342
H      -4.77071764     0.83866248    -1.20580969
N      -1.54410432    -3.75845140     0.27658486
H      -0.61508378    -3.41875685     0.05747819
H      -1.43480870    -4.47804118     0.98141733
C      -2.38857747    -2.67191726     0.77306428
H      -3.38512804    -3.06151208     0.98878897
H      -2.49915747    -1.91741809    -0.00790385
H      -2.01973269    -2.16918207     1.67814511
14 
# or7: geometry number 18. H2-H13 distance: 1.7 
N      -2.82364642     0.15393456    -1.88140707
H      -2.72544579    -0.56741639    -1.17678751
H      -3.16731158    -0.29954172    -2.71973712
C      -3.75484529     1.19009767    -1.43484489
H      -3.83226856     1.95953201    -2.20517648
H      -3.35611272     1.66941512    -0.53892342
H      -4.77071764     0.83866248    -1.20580969
N      -1.55667589    -3.68345130     0.21164688
H      -0.62765535    -3.34375675    -0.00745979
H      -1.44738027    -4.40304108     0.91647935
C      -2.40114904    -2.59691716     0.70812630
H      -3.39769961    -2.98651198     0.92385099
H      -2.51172904    -1.84241799    -0.07284183
H      -2.03230426    -2.09418197     1.61320713
14 
# or7: geometry number 19. H2-H13 distance: 1.6 
N      -2.82364642     0.15393456    -1.88140707
H      -2.72544579    -0.56741639    -1.17678751
H      -3.16731158    -0.29954172    -2.71973712
C      -3.75484529     1.19009767    -1.43484489
H      -3.83226856     1.95953201    -2.20517648
H      -3.35611272     1.66941512    -0.53892342
H      -4.77071764     0.83866248    -1.20580969
N      -1.56924746    -3.60845121     0.14670890
H      -0.64022692    -3.26875666    -0.07239777
H      -1.45995184    -4.32804099     0.85154137
C      -2.41372061    -2.52191707     0.64318832
H      -3.41027118    -2.91151189     0.85891301
H      -2.52430061    -1.76741790    -0.13777981
H      -2.04487583    -2.01918188     1.54826915
14 
# or7: geometry number 20. H2-H13 distance: 1.5 
N      -2.82364642     0.15393456    -1.88140707
H      -2.72544579    -0.56741639    -1.17678751
H      -3.16731158    -0.29954172    -2.71973712
C      -3.75484529     1.19009767    -1.43484489
H      -3.83226856     1.95953201    -2.20517648
H      -3.35611272     1.66941512    -0.53892342
H      -4.77071764     0.83866248    -1.20580969
N      -1.58181904    -3.53345111     0.08177092
H      -0.65279850    -3.19375656    -0.13733575
H      -1.47252342    -4.25304089     0.78660339
C      -2.42629219    -2.44691697     0.57825034
H      -3.42284276    -2.83651179     0.79397503
H      -2.53687219    -1.69241780    -0.20271779
H      -2.05744741    -1.94418178     1.48333117
14 
# or7: geometry number 21. H2-H13 distance: 1.4 
N      -2.82364642     0.15393456    -1.88140707
H      -2.72544579    -0.56741639    -1.17678751
H      -3.16731158    -0.29954172    -2.71973712
C      -3.75484529     1.19009767    -1.43484489
H      -3.83226856     1.95953201    -2.20517648
H      -3.35611272     1.66941512    -0.53892342
H      -4.77071764     0.83866248    -1.20580969
N      -1.59439061    -3.45845102     0.01683294
H      -0.66537007    -3.11875647    -0.20227373
H      -1.48509499    -4.17804080     0.72166541
C      -2.43886376    -2.37191688     0.51331236
H      -3.43541433    -2.76151170     0.72903705
H      -2.54944376    -1.61741771    -0.26765577
H      -2.07001898    -1.86918169     1.41839319
14 
# or7: geometry number 22. H2-H13 distance: 1.35 
N      -2.82364642     0.15393456    -1.88140707
H      -2.72544579    -0.56741639    -1.17678751
H      -3.16731158    -0.29954172    -2.71973712
C      -3.75484529     1.19009767    -1.43484489
H      -3.83226856     1.95953201    -2.20517648
H      -3.35611272     1.66941512    -0.53892342
H      -4.77071764     0.83866248    -1.20580969
N      -1.60067640    -3.42095097    -0.01563605
H      -0.67165586    -3.08125642    -0.23474272
H      -1.49138078    -4.14054075     0.68919642
C      -2.44514955    -2.33441683     0.48084337
H      -3.44170012    -2.72401165     0.69656806
H      -2.55572955    -1.57991766    -0.30012476
H      -2.07630477    -1.83168164     1.38592420
14 
# or7: geometry number 23. H2-H13 distance: 1.3 
N      -2.82364642     0.15393456    -1.88140707
H      -2.72544579    -0.56741639    -1.17678751
H      -3.16731158    -0.29954172    -2.71973712
C      -3.75484529     1.19009767    -1.43484489
H      -3.83226856     1.95953201    -2.20517648
H      -3.35611272     1.66941512    -0.53892342
H      -4.77071764     0.83866248    -1.20580969
N      -1.60696218    -3.38345093    -0.04810505
H      -0.67794164    -3.04375638    -0.26721172
H      -1.49766656    -4.10304071     0.65672742
C      -2.45143533    -2.29691679     0.44837437
H      -3.44798590    -2.68651161     0.66409906
H      -2.56201533    -1.54241762    -0.33259376
H      -2.08259055    -1.79418160     1.35345520
14 
# or7: geometry number 24. H2-H13 distance: 1.25 
N      -2.82364642     0.15393456    -1.88140707
H      -2.72544579    -0.56741639    -1.17678751
H      -3.16731158    -0.29954172    -2.71973712
C      -3.75484529     1.19009767    -1.43484489
H      -3.83226856     1.95953201    -2.20517648
H      -3.35611272     1.66941512    -0.53892342
H      -4.77071764     0.83866248    -1.20580969
N      -1.61324797    -3.34595088    -0.08057404
H      -0.68422743    -3.00625633    -0.29968071
H      -1.50395235    -4.06554066     0.62425843
C      -2.45772112    -2.25941674     0.41590538
H      -3.45427169    -2.64901156     0.63163007
H      -2.56830112    -1.50491757    -0.36506275
H      -2.08887634    -1.75668155     1.32098621
14 
# or7: geometry number 25. H2-H13 distance: 1.2 
N      -2.82364642     0.15393456    -1.88140707
H      -2.72544579    -0.56741639    -1.17678751
H      -3.16731158    -0.29954172    -2.71973712
C      -3.75484529     1.19009767    -1.43484489
H      -3.83226856     1.95953201    -2.20517648
H      -3.35611272     1.66941512    -0.53892342
H      -4.77071764     0.83866248    -1.20580969
N      -1.61953376    -3.30845083    -0.11304303
H      -0.69051322    -2.96875628    -0.33214970
H      -1.51023814    -4.02804061     0.59178944
C      -2.46400691    -2.22191669     0.38343639
H      -3.46055748    -2.61151151     0.59916108
H      -2.57458691    -1.46741752    -0.39753174
H      -2.09516213    -1.71918150     1.28851722
14 
# or7: geometry number 26. H2-H13 distance: 1.15 
N      -2.82364642     0.15393456    -1.88140707
H      -2.72544579    -0.56741639    -1.17678751
H      -3.16731158    -0.29954172    -2.71973712
C      -3.75484529     1.19009767    -1.43484489
H      -3.83226856     1.95953201    -2.20517648
H      -3.35611272     1.66941512    -0.53892342
H      -4.77071764     0.83866248    -1.20580969
N      -1.62581954    -3.27095078    -0.14551202
H      -0.69679900    -2.93125623    -0.36461869
H      -1.51652392    -3.99054056     0.55932045
C      -2.47029269    -2.18441664     0.35096740
H      -3.46684326    -2.57401146     0.56669209
H      -2.58087269    -1.42991747    -0.43000073
H      -2.10144791    -1.68168145     1.25604823
14 
# or7: geometry number 27. H2-H13 distance: 1.1 
N      -2.82364642     0.15393456    -1.88140707
H      -2.72544579    -0.56741639    -1.17678751
H      -3.16731158    -0.29954172    -2.71973712
C      -3.75484529     1.19009767    -1.43484489
H      -3.83226856     1.95953201    -2.20517648
H      -3.35611272     1.66941512    -0.53892342
H      -4.77071764     0.83866248    -1.20580969
N      -1.63210533    -3.23345074    -0.17798101
H      -0.70308479    -2.89375619    -0.39708768
H      -1.52280971    -3.95304052     0.52685146
C      -2.47657848    -2.14691660     0.31849841
H      -3.47312905    -2.53651142     0.53422310
H      -2.58715848    -1.39241743    -0.46246972
H      -2.10773370    -1.64418141     1.22357924
