14 
# or8: geometry number 1. C4-C11 distance: 11 
N      -6.06206485     1.46447118     0.84756488
H      -5.37600018     2.03480019     1.32768920
H      -6.46364538     2.04084271     0.11744661
C      -5.43592988     0.27084134     0.27889456
H      -6.19753533    -0.33095946    -0.22033212
H      -5.02224314    -0.33677431     1.08578653
H      -4.63131180     0.46435347    -0.44436422
N      -0.83217416   -10.05525072    -4.95032943
H      -0.41289146   -10.68471496    -4.27619586
H      -1.52226777   -10.59151064    -5.46291104
C      -1.45742487    -8.91721317    -4.27644871
H      -1.88915174    -8.24980869    -5.02452456
H      -0.69201904    -8.35122797    -3.74238614
H      -2.24838697    -9.17578315    -3.55847867
14 
# or8: geometry number 2. C4-C11 distance: 10 
N      -6.06206485     1.46447118     0.84756488
H      -5.37600018     2.03480019     1.32768920
H      -6.46364538     2.04084271     0.11744661
C      -5.43592988     0.27084134     0.27889456
H      -6.19753533    -0.33095946    -0.22033212
H      -5.02224314    -0.33677431     1.08578653
H      -4.63131180     0.46435347    -0.44436422
N      -1.19385643    -9.21997303    -4.53620731
H      -0.77457373    -9.84943727    -3.86207374
H      -1.88395004    -9.75623295    -5.04878892
C      -1.81910714    -8.08193548    -3.86232659
H      -2.25083401    -7.41453100    -4.61040244
H      -1.05370131    -7.51595028    -3.32826402
H      -2.61006924    -8.34050546    -3.14435655
14 
# or8: geometry number 3. C4-C11 distance: 9 
N      -6.06206485     1.46447118     0.84756488
H      -5.37600018     2.03480019     1.32768920
H      -6.46364538     2.04084271     0.11744661
C      -5.43592988     0.27084134     0.27889456
H      -6.19753533    -0.33095946    -0.22033212
H      -5.02224314    -0.33677431     1.08578653
H      -4.63131180     0.46435347    -0.44436422
N      -1.55553870    -8.38469535    -4.12208520
H      -1.13625600    -9.01415959    -3.44795163
H      -2.24563231    -8.92095527    -4.63466681
C      -2.18078941    -7.24665780    -3.44820448
H      -2.61251628    -6.57925332    -4.19628033
H      -1.41538358    -6.68067260    -2.91414191
H      -2.97175151    -7.50522778    -2.73023444
14 
# or8: geometry number 4. C4-C11 distance: 8 
N      -6.06206485     1.46447118     0.84756488
H      -5.37600018     2.03480019     1.32768920
H      -6.46364538     2.04084271     0.11744661
C      -5.43592988     0.27084134     0.27889456
H      -6.19753533    -0.33095946    -0.22033212
H      -5.02224314    -0.33677431     1.08578653
H      -4.63131180     0.46435347    -0.44436422
N      -1.91722098    -7.54941767    -3.70796308
H      -1.49793828    -8.17888191    -3.03382951
H      -2.60731459    -8.08567759    -4.22054469
C      -2.54247169    -6.41138012    -3.03408236
H      -2.97419856    -5.74397564    -3.78215821
H      -1.77706586    -5.84539492    -2.50001979
H      -3.33343379    -6.66995010    -2.31611232
14 
# or8: geometry number 5. C4-C11 distance: 7 
N      -6.06206485     1.46447118     0.84756488
H      -5.37600018     2.03480019     1.32768920
H      -6.46364538     2.04084271     0.11744661
C      -5.43592988     0.27084134     0.27889456
H      -6.19753533    -0.33095946    -0.22033212
H      -5.02224314    -0.33677431     1.08578653
H      -4.63131180     0.46435347    -0.44436422
N      -2.27890325    -6.71413999    -3.29384097
H      -1.85962055    -7.34360423    -2.61970740
H      -2.96899686    -7.25039991    -3.80642258
C      -2.90415396    -5.57610244    -2.61996025
H      -3.33588083    -4.90869796    -3.36803610
H      -2.13874813    -5.01011724    -2.08589768
H      -3.69511606    -5.83467242    -1.90199021
14 
# or8: geometry number 6. C4-C11 distance: 6 
N      -6.06206485     1.46447118     0.84756488
H      -5.37600018     2.03480019     1.32768920
H      -6.46364538     2.04084271     0.11744661
C      -5.43592988     0.27084134     0.27889456
H      -6.19753533    -0.33095946    -0.22033212
H      -5.02224314    -0.33677431     1.08578653
H      -4.63131180     0.46435347    -0.44436422
N      -2.64058553    -5.87886230    -2.87971885
H      -2.22130283    -6.50832654    -2.20558528
H      -3.33067914    -6.41512222    -3.39230046
C      -3.26583624    -4.74082475    -2.20583813
H      -3.69756311    -4.07342027    -2.95391398
H      -2.50043041    -4.17483955    -1.67177556
H      -4.05679834    -4.99939473    -1.48786809
14 
# or8: geometry number 7. C4-C11 distance: 5 
N      -6.06206485     1.46447118     0.84756488
H      -5.37600018     2.03480019     1.32768920
H      -6.46364538     2.04084271     0.11744661
C      -5.43592988     0.27084134     0.27889456
H      -6.19753533    -0.33095946    -0.22033212
H      -5.02224314    -0.33677431     1.08578653
H      -4.63131180     0.46435347    -0.44436422
N      -3.00226780    -5.04358462    -2.46559674
H      -2.58298510    -5.67304886    -1.79146317
H      -3.69236141    -5.57984454    -2.97817835
C      -3.62751851    -3.90554707    -1.79171602
H      -4.05924538    -3.23814259    -2.53979187
H      -2.86211268    -3.33956187    -1.25765345
H      -4.41848061    -4.16411705    -1.07374598
14 
# or8: geometry number 8. C4-C11 distance: 4.7 
N      -6.06206485     1.46447118     0.84756488
H      -5.37600018     2.03480019     1.32768920
H      -6.46364538     2.04084271     0.11744661
C      -5.43592988     0.27084134     0.27889456
H      -6.19753533    -0.33095946    -0.22033212
H      -5.02224314    -0.33677431     1.08578653
H      -4.63131180     0.46435347    -0.44436422
N      -3.11077248    -4.79300132    -2.34136010
H      -2.69148978    -5.42246556    -1.66722653
H      -3.80086609    -5.32926124    -2.85394171
C      -3.73602319    -3.65496377    -1.66747938
H      -4.16775006    -2.98755929    -2.41555523
H      -2.97061736    -3.08897857    -1.13341681
H      -4.52698529    -3.91353375    -0.94950934
14 
# or8: geometry number 9. C4-C11 distance: 4.3 
N      -6.06206485     1.46447118     0.84756488
H      -5.37600018     2.03480019     1.32768920
H      -6.46364538     2.04084271     0.11744661
C      -5.43592988     0.27084134     0.27889456
H      -6.19753533    -0.33095946    -0.22033212
H      -5.02224314    -0.33677431     1.08578653
H      -4.63131180     0.46435347    -0.44436422
N      -3.25544539    -4.45889024    -2.17571125
H      -2.83616269    -5.08835448    -1.50157768
H      -3.94553900    -4.99515016    -2.68829286
C      -3.88069610    -3.32085269    -1.50183053
H      -4.31242297    -2.65344821    -2.24990638
H      -3.11529027    -2.75486749    -0.96776796
H      -4.67165820    -3.57942267    -0.78386049
14 
# or8: geometry number 10. C4-C11 distance: 4.1 
N      -6.06206485     1.46447118     0.84756488
H      -5.37600018     2.03480019     1.32768920
H      -6.46364538     2.04084271     0.11744661
C      -5.43592988     0.27084134     0.27889456
H      -6.19753533    -0.33095946    -0.22033212
H      -5.02224314    -0.33677431     1.08578653
H      -4.63131180     0.46435347    -0.44436422
N      -3.32778185    -4.29183471    -2.09288683
H      -2.90849915    -4.92129895    -1.41875326
H      -4.01787546    -4.82809463    -2.60546844
C      -3.95303256    -3.15379716    -1.41900611
H      -4.38475943    -2.48639268    -2.16708196
H      -3.18762673    -2.58781196    -0.88494354
H      -4.74399466    -3.41236714    -0.70103607
14 
# or8: geometry number 11. C4-C11 distance: 3.9 
N      -6.06206485     1.46447118     0.84756488
H      -5.37600018     2.03480019     1.32768920
H      -6.46364538     2.04084271     0.11744661
C      -5.43592988     0.27084134     0.27889456
H      -6.19753533    -0.33095946    -0.22033212
H      -5.02224314    -0.33677431     1.08578653
H      -4.63131180     0.46435347    -0.44436422
N      -3.40011830    -4.12477917    -2.01006241
H      -2.98083560    -4.75424341    -1.33592884
H      -4.09021191    -4.66103909    -2.52264402
C      -4.02536901    -2.98674162    -1.33618169
H      -4.45709588    -2.31933714    -2.08425754
H      -3.25996318    -2.42075642    -0.80211912
H      -4.81633111    -3.24531160    -0.61821165
14 
# or8: geometry number 12. C4-C11 distance: 3.7 
N      -6.06206485     1.46447118     0.84756488
H      -5.37600018     2.03480019     1.32768920
H      -6.46364538     2.04084271     0.11744661
C      -5.43592988     0.27084134     0.27889456
H      -6.19753533    -0.33095946    -0.22033212
H      -5.02224314    -0.33677431     1.08578653
H      -4.63131180     0.46435347    -0.44436422
N      -3.47245476    -3.95772363    -1.92723799
H      -3.05317206    -4.58718787    -1.25310442
H      -4.16254837    -4.49398355    -2.43981960
C      -4.09770547    -2.81968608    -1.25335727
H      -4.52943234    -2.15228160    -2.00143312
H      -3.33229964    -2.25370088    -0.71929470
H      -4.88866757    -3.07825606    -0.53538723
14 
# or8: geometry number 13. C4-C11 distance: 3.5 
N      -6.06206485     1.46447118     0.84756488
H      -5.37600018     2.03480019     1.32768920
H      -6.46364538     2.04084271     0.11744661
C      -5.43592988     0.27084134     0.27889456
H      -6.19753533    -0.33095946    -0.22033212
H      -5.02224314    -0.33677431     1.08578653
H      -4.63131180     0.46435347    -0.44436422
N      -3.54479121    -3.79066810    -1.84441356
H      -3.12550851    -4.42013234    -1.17027999
H      -4.23488482    -4.32692802    -2.35699517
C      -4.17004192    -2.65263055    -1.17053284
H      -4.60176879    -1.98522607    -1.91860869
H      -3.40463609    -2.08664535    -0.63647027
H      -4.96100402    -2.91120053    -0.45256280
14 
# or8: geometry number 14. C4-C11 distance: 3.4 
N      -6.06206485     1.46447118     0.84756488
H      -5.37600018     2.03480019     1.32768920
H      -6.46364538     2.04084271     0.11744661
C      -5.43592988     0.27084134     0.27889456
H      -6.19753533    -0.33095946    -0.22033212
H      -5.02224314    -0.33677431     1.08578653
H      -4.63131180     0.46435347    -0.44436422
N      -3.58095944    -3.70714033    -1.80300135
H      -3.16167674    -4.33660457    -1.12886778
H      -4.27105305    -4.24340025    -2.31558296
C      -4.20621015    -2.56910278    -1.12912063
H      -4.63793702    -1.90169830    -1.87719648
H      -3.44080432    -2.00311758    -0.59505806
H      -4.99717225    -2.82767276    -0.41115059
14 
# or8: geometry number 15. C4-C11 distance: 3.3 
N      -6.06206485     1.46447118     0.84756488
H      -5.37600018     2.03480019     1.32768920
H      -6.46364538     2.04084271     0.11744661
C      -5.43592988     0.27084134     0.27889456
H      -6.19753533    -0.33095946    -0.22033212
H      -5.02224314    -0.33677431     1.08578653
H      -4.63131180     0.46435347    -0.44436422
N      -3.61712767    -3.62361256    -1.76158914
H      -3.19784497    -4.25307680    -1.08745557
H      -4.30722128    -4.15987248    -2.27417075
C      -4.24237838    -2.48557501    -1.08770842
H      -4.67410525    -1.81817053    -1.83578427
H      -3.47697255    -1.91958981    -0.55364585
H      -5.03334048    -2.74414499    -0.36973838
14 
# or8: geometry number 16. C4-C11 distance: 3.2 
N      -6.06206485     1.46447118     0.84756488
H      -5.37600018     2.03480019     1.32768920
H      -6.46364538     2.04084271     0.11744661
C      -5.43592988     0.27084134     0.27889456
H      -6.19753533    -0.33095946    -0.22033212
H      -5.02224314    -0.33677431     1.08578653
H      -4.63131180     0.46435347    -0.44436422
N      -3.65329589    -3.54008479    -1.72017693
H      -3.23401319    -4.16954903    -1.04604336
H      -4.34338950    -4.07634471    -2.23275854
C      -4.27854660    -2.40204724    -1.04629621
H      -4.71027347    -1.73464276    -1.79437206
H      -3.51314077    -1.83606204    -0.51223364
H      -5.06950870    -2.66061722    -0.32832617
14 
# or8: geometry number 17. C4-C11 distance: 3.1 
N      -6.06206485     1.46447118     0.84756488
H      -5.37600018     2.03480019     1.32768920
H      -6.46364538     2.04084271     0.11744661
C      -5.43592988     0.27084134     0.27889456
H      -6.19753533    -0.33095946    -0.22033212
H      -5.02224314    -0.33677431     1.08578653
H      -4.63131180     0.46435347    -0.44436422
N      -3.68946412    -3.45655703    -1.67876472
H      -3.27018142    -4.08602127    -1.00463115
H      -4.37955773    -3.99281695    -2.19134633
C      -4.31471483    -2.31851948    -1.00488400
H      -4.74644170    -1.65111500    -1.75295985
H      -3.54930900    -1.75253428    -0.47082143
H      -5.10567693    -2.57708946    -0.28691396
14 
# or8: geometry number 18. C4-C11 distance: 3 
N      -6.06206485     1.46447118     0.84756488
H      -5.37600018     2.03480019     1.32768920
H      -6.46364538     2.04084271     0.11744661
C      -5.43592988     0.27084134     0.27889456
H      -6.19753533    -0.33095946    -0.22033212
H      -5.02224314    -0.33677431     1.08578653
H      -4.63131180     0.46435347    -0.44436422
N      -3.72563235    -3.37302926    -1.63735251
H      -3.30634965    -4.00249350    -0.96321894
H      -4.41572596    -3.90928918    -2.14993412
C      -4.35088306    -2.23499171    -0.96347179
H      -4.78260993    -1.56758723    -1.71154764
H      -3.58547723    -1.66900651    -0.42940922
H      -5.14184516    -2.49356169    -0.24550175
14 
# or8: geometry number 19. C4-C11 distance: 2.9 
N      -6.06206485     1.46447118     0.84756488
H      -5.37600018     2.03480019     1.32768920
H      -6.46364538     2.04084271     0.11744661
C      -5.43592988     0.27084134     0.27889456
H      -6.19753533    -0.33095946    -0.22033212
H      -5.02224314    -0.33677431     1.08578653
H      -4.63131180     0.46435347    -0.44436422
N      -3.76180058    -3.28950149    -1.59594029
H      -3.34251788    -3.91896573    -0.92180672
H      -4.45189419    -3.82576141    -2.10852190
C      -4.38705129    -2.15146394    -0.92205957
H      -4.81877816    -1.48405946    -1.67013542
H      -3.62164546    -1.58547874    -0.38799700
H      -5.17801339    -2.41003392    -0.20408953
14 
# or8: geometry number 20. C4-C11 distance: 2.8 
N      -6.06206485     1.46447118     0.84756488
H      -5.37600018     2.03480019     1.32768920
H      -6.46364538     2.04084271     0.11744661
C      -5.43592988     0.27084134     0.27889456
H      -6.19753533    -0.33095946    -0.22033212
H      -5.02224314    -0.33677431     1.08578653
H      -4.63131180     0.46435347    -0.44436422
N      -3.79796880    -3.20597372    -1.55452808
H      -3.37868610    -3.83543796    -0.88039451
H      -4.48806241    -3.74223364    -2.06710969
C      -4.42321951    -2.06793617    -0.88064736
H      -4.85494638    -1.40053169    -1.62872321
H      -3.65781368    -1.50195097    -0.34658479
H      -5.21418161    -2.32650615    -0.16267732
14 
# or8: geometry number 21. C4-C11 distance: 2.7 
N      -6.06206485     1.46447118     0.84756488
H      -5.37600018     2.03480019     1.32768920
H      -6.46364538     2.04084271     0.11744661
C      -5.43592988     0.27084134     0.27889456
H      -6.19753533    -0.33095946    -0.22033212
H      -5.02224314    -0.33677431     1.08578653
H      -4.63131180     0.46435347    -0.44436422
N      -3.83413703    -3.12244595    -1.51311587
H      -3.41485433    -3.75191019    -0.83898230
H      -4.52423064    -3.65870587    -2.02569748
C      -4.45938774    -1.98440840    -0.83923515
H      -4.89111461    -1.31700392    -1.58731100
H      -3.69398191    -1.41842320    -0.30517258
H      -5.25034984    -2.24297838    -0.12126511
14 
# or8: geometry number 22. C4-C11 distance: 2.65 
N      -6.06206485     1.46447118     0.84756488
H      -5.37600018     2.03480019     1.32768920
H      -6.46364538     2.04084271     0.11744661
C      -5.43592988     0.27084134     0.27889456
H      -6.19753533    -0.33095946    -0.22033212
H      -5.02224314    -0.33677431     1.08578653
H      -4.63131180     0.46435347    -0.44436422
N      -3.85222114    -3.08068207    -1.49240977
H      -3.43293844    -3.71014631    -0.81827620
H      -4.54231475    -3.61694199    -2.00499138
C      -4.47747185    -1.94264452    -0.81852905
H      -4.90919872    -1.27524004    -1.56660490
H      -3.71206602    -1.37665932    -0.28446648
H      -5.26843395    -2.20121450    -0.10055901
14 
# or8: geometry number 23. C4-C11 distance: 2.6 
N      -6.06206485     1.46447118     0.84756488
H      -5.37600018     2.03480019     1.32768920
H      -6.46364538     2.04084271     0.11744661
C      -5.43592988     0.27084134     0.27889456
H      -6.19753533    -0.33095946    -0.22033212
H      -5.02224314    -0.33677431     1.08578653
H      -4.63131180     0.46435347    -0.44436422
N      -3.87030526    -3.03891818    -1.47170366
H      -3.45102256    -3.66838242    -0.79757009
H      -4.56039887    -3.57517810    -1.98428527
C      -4.49555597    -1.90088063    -0.79782294
H      -4.92728284    -1.23347615    -1.54589879
H      -3.73015014    -1.33489543    -0.26376037
H      -5.28651807    -2.15945061    -0.07985290
14 
# or8: geometry number 24. C4-C11 distance: 2.55 
N      -6.06206485     1.46447118     0.84756488
H      -5.37600018     2.03480019     1.32768920
H      -6.46364538     2.04084271     0.11744661
C      -5.43592988     0.27084134     0.27889456
H      -6.19753533    -0.33095946    -0.22033212
H      -5.02224314    -0.33677431     1.08578653
H      -4.63131180     0.46435347    -0.44436422
N      -3.88838937    -2.99715430    -1.45099755
H      -3.46910667    -3.62661854    -0.77686398
H      -4.57848298    -3.53341422    -1.96357916
C      -4.51364008    -1.85911675    -0.77711683
H      -4.94536695    -1.19171227    -1.52519268
H      -3.74823425    -1.29313155    -0.24305426
H      -5.30460218    -2.11768673    -0.05914679
14 
# or8: geometry number 25. C4-C11 distance: 2.5 
N      -6.06206485     1.46447118     0.84756488
H      -5.37600018     2.03480019     1.32768920
H      -6.46364538     2.04084271     0.11744661
C      -5.43592988     0.27084134     0.27889456
H      -6.19753533    -0.33095946    -0.22033212
H      -5.02224314    -0.33677431     1.08578653
H      -4.63131180     0.46435347    -0.44436422
N      -3.90647349    -2.95539042    -1.43029145
H      -3.48719079    -3.58485466    -0.75615788
H      -4.59656710    -3.49165034    -1.94287306
C      -4.53172420    -1.81735287    -0.75641073
H      -4.96345107    -1.14994839    -1.50448658
H      -3.76631837    -1.25136767    -0.22234816
H      -5.32268630    -2.07592285    -0.03844069
14 
# or8: geometry number 26. C4-C11 distance: 2.45 
N      -6.06206485     1.46447118     0.84756488
H      -5.37600018     2.03480019     1.32768920
H      -6.46364538     2.04084271     0.11744661
C      -5.43592988     0.27084134     0.27889456
H      -6.19753533    -0.33095946    -0.22033212
H      -5.02224314    -0.33677431     1.08578653
H      -4.63131180     0.46435347    -0.44436422
N      -3.92455760    -2.91362653    -1.40958534
H      -3.50527490    -3.54309077    -0.73545177
H      -4.61465121    -3.44988645    -1.92216695
C      -4.54980831    -1.77558898    -0.73570462
H      -4.98153518    -1.10818450    -1.48378047
H      -3.78440248    -1.20960378    -0.20164205
H      -5.34077041    -2.03415896    -0.01773458
14 
# or8: geometry number 27. C4-C11 distance: 2.4 
N      -6.06206485     1.46447118     0.84756488
H      -5.37600018     2.03480019     1.32768920
H      -6.46364538     2.04084271     0.11744661
C      -5.43592988     0.27084134     0.27889456
H      -6.19753533    -0.33095946    -0.22033212
H      -5.02224314    -0.33677431     1.08578653
H      -4.63131180     0.46435347    -0.44436422
N      -3.94264171    -2.87186265    -1.38887924
H      -3.52335901    -3.50132689    -0.71474567
H      -4.63273532    -3.40812257    -1.90146085
C      -4.56789242    -1.73382510    -0.71499852
H      -4.99961929    -1.06642062    -1.46307437
H      -3.80248659    -1.16783990    -0.18093595
H      -5.35885452    -1.99239508     0.00297152
14 
# or8: geometry number 28. C4-C11 distance: 2.35 
N      -6.06206485     1.46447118     0.84756488
H      -5.37600018     2.03480019     1.32768920
H      -6.46364538     2.04084271     0.11744661
C      -5.43592988     0.27084134     0.27889456
H      -6.19753533    -0.33095946    -0.22033212
H      -5.02224314    -0.33677431     1.08578653
H      -4.63131180     0.46435347    -0.44436422
N      -3.96072583    -2.83009876    -1.36817313
H      -3.54144313    -3.45956300    -0.69403956
H      -4.65081944    -3.36635868    -1.88075474
C      -4.58597654    -1.69206121    -0.69429241
H      -5.01770341    -1.02465673    -1.44236826
H      -3.82057071    -1.12607601    -0.16022984
H      -5.37693864    -1.95063119     0.02367763
14 
# or8: geometry number 29. C4-C11 distance: 2.3 
N      -6.06206485     1.46447118     0.84756488
H      -5.37600018     2.03480019     1.32768920
H      -6.46364538     2.04084271     0.11744661
C      -5.43592988     0.27084134     0.27889456
H      -6.19753533    -0.33095946    -0.22033212
H      -5.02224314    -0.33677431     1.08578653
H      -4.63131180     0.46435347    -0.44436422
N      -3.97880994    -2.78833488    -1.34746702
H      -3.55952724    -3.41779912    -0.67333345
H      -4.66890355    -3.32459480    -1.86004863
C      -4.60406065    -1.65029733    -0.67358630
H      -5.03578752    -0.98289285    -1.42166215
H      -3.83865482    -1.08431213    -0.13952373
H      -5.39502275    -1.90886731     0.04438374
