14 
# or9: geometry number 1. C4-H12 distance: 11 
N      -3.91426770    -2.93739027    -1.42136716
H      -3.49498500    -3.56685451    -0.74723359
H      -4.60436131    -3.47365019    -1.93394877
C      -4.53951841    -1.79935272    -0.74748644
H      -4.97124528    -1.13194824    -1.49556229
H      -3.77411258    -1.23336752    -0.21342387
H      -5.33048051    -2.05792270    -0.02951640
N     -11.14327958     8.04843736     3.81285007
H     -11.55853399     8.88672680     4.20184091
H     -11.43367136     7.99975120     2.84339351
C      -9.68471770     8.09858297     3.91417024
H      -9.26422859     7.18008255     3.50067268
H      -9.39898851     8.13896364     4.96685080
H      -9.20933503     8.94732812     3.40269839
14 
# or9: geometry number 2. C4-H12 distance: 10 
N      -3.91426770    -2.93739027    -1.42136716
H      -3.49498500    -3.56685451    -0.74723359
H      -4.60436131    -3.47365019    -1.93394877
C      -4.53951841    -1.79935272    -0.74748644
H      -4.97124528    -1.13194824    -1.49556229
H      -3.77411258    -1.23336752    -0.21342387
H      -5.33048051    -2.05792270    -0.02951640
N     -10.71376047     7.23212507     3.42665379
H     -11.12901488     8.07041451     3.81564463
H     -11.00415225     7.18343891     2.45719723
C      -9.25519859     7.28227068     3.52797396
H      -8.83470948     6.36377026     3.11447640
H      -8.96946940     7.32265135     4.58065452
H      -8.77981592     8.13101583     3.01650211
14 
# or9: geometry number 3. C4-H12 distance: 9 
N      -3.91426770    -2.93739027    -1.42136716
H      -3.49498500    -3.56685451    -0.74723359
H      -4.60436131    -3.47365019    -1.93394877
C      -4.53951841    -1.79935272    -0.74748644
H      -4.97124528    -1.13194824    -1.49556229
H      -3.77411258    -1.23336752    -0.21342387
H      -5.33048051    -2.05792270    -0.02951640
N     -10.28424136     6.41581277     3.04045750
H     -10.69949577     7.25410221     3.42944834
H     -10.57463314     6.36712661     2.07100094
C      -8.82567948     6.46595838     3.14177767
H      -8.40519037     5.54745796     2.72828011
H      -8.53995029     6.50633905     4.19445823
H      -8.35029681     7.31470353     2.63030582
14 
# or9: geometry number 4. C4-H12 distance: 8 
N      -3.91426770    -2.93739027    -1.42136716
H      -3.49498500    -3.56685451    -0.74723359
H      -4.60436131    -3.47365019    -1.93394877
C      -4.53951841    -1.79935272    -0.74748644
H      -4.97124528    -1.13194824    -1.49556229
H      -3.77411258    -1.23336752    -0.21342387
H      -5.33048051    -2.05792270    -0.02951640
N      -9.85472226     5.59950047     2.65426122
H     -10.26997667     6.43778991     3.04325206
H     -10.14511404     5.55081431     1.68480466
C      -8.39616038     5.64964608     2.75558139
H      -7.97567127     4.73114566     2.34208383
H      -8.11043119     5.69002675     3.80826195
H      -7.92077771     6.49839123     2.24410954
14 
# or9: geometry number 5. C4-H12 distance: 7 
N      -3.91426770    -2.93739027    -1.42136716
H      -3.49498500    -3.56685451    -0.74723359
H      -4.60436131    -3.47365019    -1.93394877
C      -4.53951841    -1.79935272    -0.74748644
H      -4.97124528    -1.13194824    -1.49556229
H      -3.77411258    -1.23336752    -0.21342387
H      -5.33048051    -2.05792270    -0.02951640
N      -9.42520315     4.78318817     2.26806494
H      -9.84045756     5.62147761     2.65705578
H      -9.71559493     4.73450201     1.29860838
C      -7.96664127     4.83333378     2.36938511
H      -7.54615216     3.91483336     1.95588755
H      -7.68091208     4.87371445     3.42206567
H      -7.49125860     5.68207893     1.85791326
14 
# or9: geometry number 6. C4-H12 distance: 6 
N      -3.91426770    -2.93739027    -1.42136716
H      -3.49498500    -3.56685451    -0.74723359
H      -4.60436131    -3.47365019    -1.93394877
C      -4.53951841    -1.79935272    -0.74748644
H      -4.97124528    -1.13194824    -1.49556229
H      -3.77411258    -1.23336752    -0.21342387
H      -5.33048051    -2.05792270    -0.02951640
N      -8.99568404     3.96687588     1.88186865
H      -9.41093845     4.80516532     2.27085949
H      -9.28607582     3.91818972     0.91241209
C      -7.53712216     4.01702149     1.98318882
H      -7.11663305     3.09852107     1.56969126
H      -7.25139297     4.05740216     3.03586938
H      -7.06173949     4.86576664     1.47171697
14 
# or9: geometry number 7. C4-H12 distance: 5 
N      -3.91426770    -2.93739027    -1.42136716
H      -3.49498500    -3.56685451    -0.74723359
H      -4.60436131    -3.47365019    -1.93394877
C      -4.53951841    -1.79935272    -0.74748644
H      -4.97124528    -1.13194824    -1.49556229
H      -3.77411258    -1.23336752    -0.21342387
H      -5.33048051    -2.05792270    -0.02951640
N      -8.56616494     3.15056358     1.49567237
H      -8.98141935     3.98885302     1.88466321
H      -8.85655672     3.10187742     0.52621581
C      -7.10760306     3.20070919     1.59699254
H      -6.68711395     2.28220877     1.18349498
H      -6.82187387     3.24108986     2.64967310
H      -6.63222039     4.04945434     1.08552069
14 
# or9: geometry number 8. C4-H12 distance: 4.5 
N      -3.91426770    -2.93739027    -1.42136716
H      -3.49498500    -3.56685451    -0.74723359
H      -4.60436131    -3.47365019    -1.93394877
C      -4.53951841    -1.79935272    -0.74748644
H      -4.97124528    -1.13194824    -1.49556229
H      -3.77411258    -1.23336752    -0.21342387
H      -5.33048051    -2.05792270    -0.02951640
N      -8.35140538     2.74240743     1.30257423
H      -8.76665979     3.58069687     1.69156507
H      -8.64179716     2.69372127     0.33311767
C      -6.89284350     2.79255304     1.40389440
H      -6.47235439     1.87405262     0.99039684
H      -6.60711431     2.83293371     2.45657496
H      -6.41746083     3.64129819     0.89242255
14 
# or9: geometry number 9. C4-H12 distance: 4 
N      -3.91426770    -2.93739027    -1.42136716
H      -3.49498500    -3.56685451    -0.74723359
H      -4.60436131    -3.47365019    -1.93394877
C      -4.53951841    -1.79935272    -0.74748644
H      -4.97124528    -1.13194824    -1.49556229
H      -3.77411258    -1.23336752    -0.21342387
H      -5.33048051    -2.05792270    -0.02951640
N      -8.13664583     2.33425128     1.10947608
H      -8.55190024     3.17254072     1.49846692
H      -8.42703761     2.28556512     0.14001952
C      -6.67808395     2.38439689     1.21079625
H      -6.25759484     1.46589647     0.79729869
H      -6.39235476     2.42477756     2.26347681
H      -6.20270128     3.23314204     0.69932440
14 
# or9: geometry number 10. C4-H12 distance: 3.7 
N      -3.91426770    -2.93739027    -1.42136716
H      -3.49498500    -3.56685451    -0.74723359
H      -4.60436131    -3.47365019    -1.93394877
C      -4.53951841    -1.79935272    -0.74748644
H      -4.97124528    -1.13194824    -1.49556229
H      -3.77411258    -1.23336752    -0.21342387
H      -5.33048051    -2.05792270    -0.02951640
N      -8.00779010     2.08935759     0.99361720
H      -8.42304451     2.92764703     1.38260804
H      -8.29818188     2.04067143     0.02416064
C      -6.54922822     2.13950320     1.09493737
H      -6.12873911     1.22100278     0.68143981
H      -6.26349903     2.17988387     2.14761793
H      -6.07384555     2.98824835     0.58346552
14 
# or9: geometry number 11. C4-H12 distance: 3.4 
N      -3.91426770    -2.93739027    -1.42136716
H      -3.49498500    -3.56685451    -0.74723359
H      -4.60436131    -3.47365019    -1.93394877
C      -4.53951841    -1.79935272    -0.74748644
H      -4.97124528    -1.13194824    -1.49556229
H      -3.77411258    -1.23336752    -0.21342387
H      -5.33048051    -2.05792270    -0.02951640
N      -7.87893436     1.84446390     0.87775831
H      -8.29418877     2.68275334     1.26674915
H      -8.16932614     1.79577774    -0.09169825
C      -6.42037248     1.89460951     0.97907848
H      -5.99988337     0.97610909     0.56558092
H      -6.13464329     1.93499018     2.03175904
H      -5.94498981     2.74335466     0.46760663
14 
# or9: geometry number 12. C4-H12 distance: 3.1 
N      -3.91426770    -2.93739027    -1.42136716
H      -3.49498500    -3.56685451    -0.74723359
H      -4.60436131    -3.47365019    -1.93394877
C      -4.53951841    -1.79935272    -0.74748644
H      -4.97124528    -1.13194824    -1.49556229
H      -3.77411258    -1.23336752    -0.21342387
H      -5.33048051    -2.05792270    -0.02951640
N      -7.75007863     1.59957021     0.76189943
H      -8.16533304     2.43785965     1.15089027
H      -8.04047041     1.55088405    -0.20755713
C      -6.29151675     1.64971582     0.86321960
H      -5.87102764     0.73121540     0.44972204
H      -6.00578756     1.69009649     1.91590016
H      -5.81613408     2.49846097     0.35174775
14 
# or9: geometry number 13. C4-H12 distance: 2.9 
N      -3.91426770    -2.93739027    -1.42136716
H      -3.49498500    -3.56685451    -0.74723359
H      -4.60436131    -3.47365019    -1.93394877
C      -4.53951841    -1.79935272    -0.74748644
H      -4.97124528    -1.13194824    -1.49556229
H      -3.77411258    -1.23336752    -0.21342387
H      -5.33048051    -2.05792270    -0.02951640
N      -7.66417481     1.43630775     0.68466017
H      -8.07942922     2.27459719     1.07365101
H      -7.95456659     1.38762159    -0.28479639
C      -6.20561293     1.48645336     0.78598034
H      -5.78512382     0.56795294     0.37248278
H      -5.91988374     1.52683403     1.83866090
H      -5.73023026     2.33519851     0.27450849
14 
# or9: geometry number 14. C4-H12 distance: 2.8 
N      -3.91426770    -2.93739027    -1.42136716
H      -3.49498500    -3.56685451    -0.74723359
H      -4.60436131    -3.47365019    -1.93394877
C      -4.53951841    -1.79935272    -0.74748644
H      -4.97124528    -1.13194824    -1.49556229
H      -3.77411258    -1.23336752    -0.21342387
H      -5.33048051    -2.05792270    -0.02951640
N      -7.62122290     1.35467652     0.64604054
H      -8.03647731     2.19296596     1.03503138
H      -7.91161468     1.30599036    -0.32341602
C      -6.16266102     1.40482213     0.74736071
H      -5.74217191     0.48632171     0.33386315
H      -5.87693183     1.44520280     1.80004127
H      -5.68727835     2.25356728     0.23588886
14 
# or9: geometry number 15. C4-H12 distance: 2.7 
N      -3.91426770    -2.93739027    -1.42136716
H      -3.49498500    -3.56685451    -0.74723359
H      -4.60436131    -3.47365019    -1.93394877
C      -4.53951841    -1.79935272    -0.74748644
H      -4.97124528    -1.13194824    -1.49556229
H      -3.77411258    -1.23336752    -0.21342387
H      -5.33048051    -2.05792270    -0.02951640
N      -7.57827099     1.27304529     0.60742092
H      -7.99352540     2.11133473     0.99641176
H      -7.86866277     1.22435913    -0.36203564
C      -6.11970911     1.32319090     0.70874109
H      -5.69922000     0.40469048     0.29524353
H      -5.83397992     1.36357157     1.76142165
H      -5.64432644     2.17193605     0.19726924
14 
# or9: geometry number 16. C4-H12 distance: 2.6 
N      -3.91426770    -2.93739027    -1.42136716
H      -3.49498500    -3.56685451    -0.74723359
H      -4.60436131    -3.47365019    -1.93394877
C      -4.53951841    -1.79935272    -0.74748644
H      -4.97124528    -1.13194824    -1.49556229
H      -3.77411258    -1.23336752    -0.21342387
H      -5.33048051    -2.05792270    -0.02951640
N      -7.53531908     1.19141406     0.56880129
H      -7.95057349     2.02970350     0.95779213
H      -7.82571086     1.14272790    -0.40065527
C      -6.07675720     1.24155967     0.67012146
H      -5.65626809     0.32305925     0.25662390
H      -5.79102801     1.28194034     1.72280202
H      -5.60137453     2.09030482     0.15864961
14 
# or9: geometry number 17. C4-H12 distance: 2.5 
N      -3.91426770    -2.93739027    -1.42136716
H      -3.49498500    -3.56685451    -0.74723359
H      -4.60436131    -3.47365019    -1.93394877
C      -4.53951841    -1.79935272    -0.74748644
H      -4.97124528    -1.13194824    -1.49556229
H      -3.77411258    -1.23336752    -0.21342387
H      -5.33048051    -2.05792270    -0.02951640
N      -7.49236717     1.10978283     0.53018166
H      -7.90762158     1.94807227     0.91917250
H      -7.78275895     1.06109667    -0.43927490
C      -6.03380529     1.15992844     0.63150183
H      -5.61331618     0.24142802     0.21800427
H      -5.74807610     1.20030911     1.68418239
H      -5.55842262     2.00867359     0.12002998
14 
# or9: geometry number 18. C4-H12 distance: 2.4 
N      -3.91426770    -2.93739027    -1.42136716
H      -3.49498500    -3.56685451    -0.74723359
H      -4.60436131    -3.47365019    -1.93394877
C      -4.53951841    -1.79935272    -0.74748644
H      -4.97124528    -1.13194824    -1.49556229
H      -3.77411258    -1.23336752    -0.21342387
H      -5.33048051    -2.05792270    -0.02951640
N      -7.44941526     1.02815160     0.49156203
H      -7.86466967     1.86644104     0.88055287
H      -7.73980704     0.97946544    -0.47789453
C      -5.99085338     1.07829721     0.59288220
H      -5.57036427     0.15979679     0.17938464
H      -5.70512419     1.11867788     1.64556276
H      -5.51547071     1.92704236     0.08141035
14 
# or9: geometry number 19. C4-H12 distance: 2.3 
N      -3.91426770    -2.93739027    -1.42136716
H      -3.49498500    -3.56685451    -0.74723359
H      -4.60436131    -3.47365019    -1.93394877
C      -4.53951841    -1.79935272    -0.74748644
H      -4.97124528    -1.13194824    -1.49556229
H      -3.77411258    -1.23336752    -0.21342387
H      -5.33048051    -2.05792270    -0.02951640
N      -7.40646335     0.94652037     0.45294240
H      -7.82171776     1.78480981     0.84193324
H      -7.69685513     0.89783421    -0.51651416
C      -5.94790147     0.99666598     0.55426257
H      -5.52741236     0.07816556     0.14076501
H      -5.66217228     1.03704665     1.60694313
H      -5.47251880     1.84541113     0.04279072
14 
# or9: geometry number 20. C4-H12 distance: 2.2 
N      -3.91426770    -2.93739027    -1.42136716
H      -3.49498500    -3.56685451    -0.74723359
H      -4.60436131    -3.47365019    -1.93394877
C      -4.53951841    -1.79935272    -0.74748644
H      -4.97124528    -1.13194824    -1.49556229
H      -3.77411258    -1.23336752    -0.21342387
H      -5.33048051    -2.05792270    -0.02951640
N      -7.36351144     0.86488914     0.41432277
H      -7.77876585     1.70317858     0.80331361
H      -7.65390322     0.81620298    -0.55513379
C      -5.90494956     0.91503475     0.51564294
H      -5.48446045    -0.00346567     0.10214538
H      -5.61922037     0.95541542     1.56832350
H      -5.42956689     1.76377990     0.00417109
14 
# or9: geometry number 21. C4-H12 distance: 2.1 
N      -3.91426770    -2.93739027    -1.42136716
H      -3.49498500    -3.56685451    -0.74723359
H      -4.60436131    -3.47365019    -1.93394877
C      -4.53951841    -1.79935272    -0.74748644
H      -4.97124528    -1.13194824    -1.49556229
H      -3.77411258    -1.23336752    -0.21342387
H      -5.33048051    -2.05792270    -0.02951640
N      -7.32055952     0.78325792     0.37570315
H      -7.73581393     1.62154736     0.76469399
H      -7.61095130     0.73457176    -0.59375341
C      -5.86199764     0.83340353     0.47702332
H      -5.44150853    -0.08509689     0.06352576
H      -5.57626845     0.87378420     1.52970388
H      -5.38661497     1.68214868    -0.03444853
14 
# or9: geometry number 22. C4-H12 distance: 2.05 
N      -3.91426770    -2.93739027    -1.42136716
H      -3.49498500    -3.56685451    -0.74723359
H      -4.60436131    -3.47365019    -1.93394877
C      -4.53951841    -1.79935272    -0.74748644
H      -4.97124528    -1.13194824    -1.49556229
H      -3.77411258    -1.23336752    -0.21342387
H      -5.33048051    -2.05792270    -0.02951640
N      -7.29908357     0.74244230     0.35639333
H      -7.71433798     1.58073174     0.74538417
H      -7.58947535     0.69375614    -0.61306323
C      -5.84052169     0.79258791     0.45771350
H      -5.42003258    -0.12591251     0.04421594
H      -5.55479250     0.83296858     1.51039406
H      -5.36513902     1.64133306    -0.05375835
14 
# or9: geometry number 23. C4-H12 distance: 2.0 
N      -3.91426770    -2.93739027    -1.42136716
H      -3.49498500    -3.56685451    -0.74723359
H      -4.60436131    -3.47365019    -1.93394877
C      -4.53951841    -1.79935272    -0.74748644
H      -4.97124528    -1.13194824    -1.49556229
H      -3.77411258    -1.23336752    -0.21342387
H      -5.33048051    -2.05792270    -0.02951640
N      -7.27760761     0.70162669     0.33708352
H      -7.69286202     1.53991613     0.72607436
H      -7.56799939     0.65294053    -0.63237304
C      -5.81904573     0.75177230     0.43840369
H      -5.39855662    -0.16672812     0.02490613
H      -5.53331654     0.79215297     1.49108425
H      -5.34366306     1.60051745    -0.07306816
14 
# or9: geometry number 24. C4-H12 distance: 1.95 
N      -3.91426770    -2.93739027    -1.42136716
H      -3.49498500    -3.56685451    -0.74723359
H      -4.60436131    -3.47365019    -1.93394877
C      -4.53951841    -1.79935272    -0.74748644
H      -4.97124528    -1.13194824    -1.49556229
H      -3.77411258    -1.23336752    -0.21342387
H      -5.33048051    -2.05792270    -0.02951640
N      -7.25613166     0.66081107     0.31777370
H      -7.67138607     1.49910051     0.70676454
H      -7.54652344     0.61212491    -0.65168286
C      -5.79756978     0.71095668     0.41909387
H      -5.37708067    -0.20754374     0.00559631
H      -5.51184059     0.75133735     1.47177443
H      -5.32218711     1.55970183    -0.09237798
14 
# or9: geometry number 25. C4-H12 distance: 1.9 
N      -3.91426770    -2.93739027    -1.42136716
H      -3.49498500    -3.56685451    -0.74723359
H      -4.60436131    -3.47365019    -1.93394877
C      -4.53951841    -1.79935272    -0.74748644
H      -4.97124528    -1.13194824    -1.49556229
H      -3.77411258    -1.23336752    -0.21342387
H      -5.33048051    -2.05792270    -0.02951640
N      -7.23465570     0.61999546     0.29846389
H      -7.64991011     1.45828490     0.68745473
H      -7.52504748     0.57130930    -0.67099267
C      -5.77609382     0.67014107     0.39978406
H      -5.35560471    -0.24835935    -0.01371350
H      -5.49036463     0.71052174     1.45246462
H      -5.30071115     1.51888622    -0.11168779
14 
# or9: geometry number 26. C4-H12 distance: 1.85 
N      -3.91426770    -2.93739027    -1.42136716
H      -3.49498500    -3.56685451    -0.74723359
H      -4.60436131    -3.47365019    -1.93394877
C      -4.53951841    -1.79935272    -0.74748644
H      -4.97124528    -1.13194824    -1.49556229
H      -3.77411258    -1.23336752    -0.21342387
H      -5.33048051    -2.05792270    -0.02951640
N      -7.21317975     0.57917984     0.27915407
H      -7.62843416     1.41746928     0.66814491
H      -7.50357153     0.53049368    -0.69030249
C      -5.75461787     0.62932545     0.38047424
H      -5.33412876    -0.28917497    -0.03302332
H      -5.46888868     0.66970612     1.43315480
H      -5.27923520     1.47807060    -0.13099761
14 
# or9: geometry number 27. C4-H12 distance: 1.8 
N      -3.91426770    -2.93739027    -1.42136716
H      -3.49498500    -3.56685451    -0.74723359
H      -4.60436131    -3.47365019    -1.93394877
C      -4.53951841    -1.79935272    -0.74748644
H      -4.97124528    -1.13194824    -1.49556229
H      -3.77411258    -1.23336752    -0.21342387
H      -5.33048051    -2.05792270    -0.02951640
N      -7.19170379     0.53836423     0.25984426
H      -7.60695820     1.37665367     0.64883510
H      -7.48209557     0.48967807    -0.70961230
C      -5.73314191     0.58850984     0.36116443
H      -5.31265280    -0.32999058    -0.05233313
H      -5.44741272     0.62889051     1.41384499
H      -5.25775924     1.43725499    -0.15030742
14 
# or9: geometry number 28. C4-H12 distance: 1.75 
N      -3.91426770    -2.93739027    -1.42136716
H      -3.49498500    -3.56685451    -0.74723359
H      -4.60436131    -3.47365019    -1.93394877
C      -4.53951841    -1.79935272    -0.74748644
H      -4.97124528    -1.13194824    -1.49556229
H      -3.77411258    -1.23336752    -0.21342387
H      -5.33048051    -2.05792270    -0.02951640
N      -7.17022784     0.49754861     0.24053445
H      -7.58548225     1.33583805     0.62952529
H      -7.46061962     0.44886245    -0.72892211
C      -5.71166596     0.54769422     0.34185462
H      -5.29117685    -0.37080620    -0.07164294
H      -5.42593677     0.58807489     1.39453518
H      -5.23628329     1.39643937    -0.16961723
14 
# or9: geometry number 29. C4-H12 distance: 1.7 
N      -3.91426770    -2.93739027    -1.42136716
H      -3.49498500    -3.56685451    -0.74723359
H      -4.60436131    -3.47365019    -1.93394877
C      -4.53951841    -1.79935272    -0.74748644
H      -4.97124528    -1.13194824    -1.49556229
H      -3.77411258    -1.23336752    -0.21342387
H      -5.33048051    -2.05792270    -0.02951640
N      -7.14875188     0.45673300     0.22122463
H      -7.56400629     1.29502244     0.61021547
H      -7.43914366     0.40804684    -0.74823193
C      -5.69019000     0.50687861     0.32254480
H      -5.26970089    -0.41162181    -0.09095276
H      -5.40446081     0.54725928     1.37522536
H      -5.21480733     1.35562376    -0.18892705
14 
# or9: geometry number 30. C4-H12 distance: 1.65 
N      -3.91426770    -2.93739027    -1.42136716
H      -3.49498500    -3.56685451    -0.74723359
H      -4.60436131    -3.47365019    -1.93394877
C      -4.53951841    -1.79935272    -0.74748644
H      -4.97124528    -1.13194824    -1.49556229
H      -3.77411258    -1.23336752    -0.21342387
H      -5.33048051    -2.05792270    -0.02951640
N      -7.12727593     0.41591738     0.20191482
H      -7.54253034     1.25420682     0.59090566
H      -7.41766771     0.36723122    -0.76754174
C      -5.66871405     0.46606299     0.30323499
H      -5.24822494    -0.45243743    -0.11026257
H      -5.38298486     0.50644366     1.35591555
H      -5.19333138     1.31480814    -0.20823686
14 
# or9: geometry number 31. C4-H12 distance: 1.6 
N      -3.91426770    -2.93739027    -1.42136716
H      -3.49498500    -3.56685451    -0.74723359
H      -4.60436131    -3.47365019    -1.93394877
C      -4.53951841    -1.79935272    -0.74748644
H      -4.97124528    -1.13194824    -1.49556229
H      -3.77411258    -1.23336752    -0.21342387
H      -5.33048051    -2.05792270    -0.02951640
N      -7.10579997     0.37510177     0.18260500
H      -7.52105438     1.21339121     0.57159584
H      -7.39619175     0.32641561    -0.78685156
C      -5.64723809     0.42524738     0.28392517
H      -5.22674898    -0.49325304    -0.12957239
H      -5.36150890     0.46562805     1.33660573
H      -5.17185542     1.27399253    -0.22754668
