16 
# or10: geometry number 1. N3-H11 distance: 10 
C       0.56949490    -1.02115023    -0.03062007
C      -0.20535728     0.23293264     0.32397356
N      -1.43489602     0.02996080     0.87760698
O       0.27442357     1.34251968     0.19761570
H      -1.96867979     0.83330412     1.16519516
H      -1.79745374    -0.88755489     1.06061336
H       1.05014835    -1.04113081    -1.00762252
H       1.35613011    -1.04840419     0.72534334
H      -0.05960550    -1.90427171     0.08318216
N       1.84559418    -0.06418754    11.38520762
H       1.45978364    -0.08969367    10.44873609
H       2.23309470     0.86252614    11.51783064
C       0.80839891    -0.33850086    12.37977350
H       1.25236623    -0.31775625    13.37671734
H       0.41659884    -1.34496704    12.22189168
H      -0.04098951     0.35897223    12.37420117
16 
# or10: geometry number 2. N3-H11 distance: 9 
C       0.56949490    -1.02115023    -0.03062007
C      -0.20535728     0.23293264     0.32397356
N      -1.43489602     0.02996080     0.87760698
O       0.27442357     1.34251968     0.19761570
H      -1.96867979     0.83330412     1.16519516
H      -1.79745374    -0.88755489     1.06061336
H       1.05014835    -1.04113081    -1.00762252
H       1.35613011    -1.04840419     0.72534334
H      -0.05960550    -1.90427171     0.08318216
N       1.55612621    -0.05222209    10.42809471
H       1.17031567    -0.07772822     9.49162318
H       1.94362673     0.87449159    10.56071773
C       0.51893094    -0.32653541    11.42266059
H       0.96289826    -0.30579080    12.41960443
H       0.12713087    -1.33300159    11.26477877
H      -0.33045748     0.37093768    11.41708826
16 
# or10: geometry number 3. N3-H11 distance: 8 
C       0.56949490    -1.02115023    -0.03062007
C      -0.20535728     0.23293264     0.32397356
N      -1.43489602     0.02996080     0.87760698
O       0.27442357     1.34251968     0.19761570
H      -1.96867979     0.83330412     1.16519516
H      -1.79745374    -0.88755489     1.06061336
H       1.05014835    -1.04113081    -1.00762252
H       1.35613011    -1.04840419     0.72534334
H      -0.05960550    -1.90427171     0.08318216
N       1.26665825    -0.04025664     9.47098180
H       0.88084771    -0.06576277     8.53451027
H       1.65415877     0.88645704     9.60360482
C       0.22946298    -0.31456996    10.46554768
H       0.67343030    -0.29382535    11.46249152
H      -0.16233709    -1.32103614    10.30766586
H      -0.61992544     0.38290313    10.45997535
16 
# or10: geometry number 4. N3-H11 distance: 7 
C       0.56949490    -1.02115023    -0.03062007
C      -0.20535728     0.23293264     0.32397356
N      -1.43489602     0.02996080     0.87760698
O       0.27442357     1.34251968     0.19761570
H      -1.96867979     0.83330412     1.16519516
H      -1.79745374    -0.88755489     1.06061336
H       1.05014835    -1.04113081    -1.00762252
H       1.35613011    -1.04840419     0.72534334
H      -0.05960550    -1.90427171     0.08318216
N       0.97719028    -0.02829120     8.51386889
H       0.59137974    -0.05379733     7.57739736
H       1.36469080     0.89842248     8.64649191
C      -0.06000499    -0.30260452     9.50843477
H       0.38396233    -0.28185991    10.50537861
H      -0.45180506    -1.30907070     9.35055295
H      -0.90939341     0.39486857     9.50286244
16 
# or10: geometry number 5. N3-H11 distance: 6 
C       0.56949490    -1.02115023    -0.03062007
C      -0.20535728     0.23293264     0.32397356
N      -1.43489602     0.02996080     0.87760698
O       0.27442357     1.34251968     0.19761570
H      -1.96867979     0.83330412     1.16519516
H      -1.79745374    -0.88755489     1.06061336
H       1.05014835    -1.04113081    -1.00762252
H       1.35613011    -1.04840419     0.72534334
H      -0.05960550    -1.90427171     0.08318216
N       0.68772232    -0.01632575     7.55675598
H       0.30191178    -0.04183188     6.62028445
H       1.07522284     0.91038793     7.68937900
C      -0.34947295    -0.29063907     8.55132186
H       0.09449437    -0.26989446     9.54826570
H      -0.74127302    -1.29710525     8.39344004
H      -1.19886137     0.40683402     8.54574953
16 
# or10: geometry number 6. N3-H11 distance: 5 
C       0.56949490    -1.02115023    -0.03062007
C      -0.20535728     0.23293264     0.32397356
N      -1.43489602     0.02996080     0.87760698
O       0.27442357     1.34251968     0.19761570
H      -1.96867979     0.83330412     1.16519516
H      -1.79745374    -0.88755489     1.06061336
H       1.05014835    -1.04113081    -1.00762252
H       1.35613011    -1.04840419     0.72534334
H      -0.05960550    -1.90427171     0.08318216
N       0.39825435    -0.00436030     6.59964307
H       0.01244381    -0.02986643     5.66317154
H       0.78575487     0.92235338     6.73226609
C      -0.63894092    -0.27867362     7.59420895
H      -0.19497360    -0.25792901     8.59115279
H      -1.03074099    -1.28513980     7.43632713
H      -1.48832934     0.41879947     7.58863662
16 
# or10: geometry number 7. N3-H11 distance: 4.5 
C       0.56949490    -1.02115023    -0.03062007
C      -0.20535728     0.23293264     0.32397356
N      -1.43489602     0.02996080     0.87760698
O       0.27442357     1.34251968     0.19761570
H      -1.96867979     0.83330412     1.16519516
H      -1.79745374    -0.88755489     1.06061336
H       1.05014835    -1.04113081    -1.00762252
H       1.35613011    -1.04840419     0.72534334
H      -0.05960550    -1.90427171     0.08318216
N       0.25352037     0.00162242     6.12108661
H      -0.13229017    -0.02388371     5.18461508
H       0.64102089     0.92833610     6.25370963
C      -0.78367490    -0.27269090     7.11565249
H      -0.33970758    -0.25194629     8.11259633
H      -1.17547497    -1.27915708     6.95777067
H      -1.63306332     0.42478219     7.11008016
16 
# or10: geometry number 8. N3-H11 distance: 4 
C       0.56949490    -1.02115023    -0.03062007
C      -0.20535728     0.23293264     0.32397356
N      -1.43489602     0.02996080     0.87760698
O       0.27442357     1.34251968     0.19761570
H      -1.96867979     0.83330412     1.16519516
H      -1.79745374    -0.88755489     1.06061336
H       1.05014835    -1.04113081    -1.00762252
H       1.35613011    -1.04840419     0.72534334
H      -0.05960550    -1.90427171     0.08318216
N       0.10878638     0.00760514     5.64253015
H      -0.27702416    -0.01790099     4.70605862
H       0.49628690     0.93431882     5.77515317
C      -0.92840889    -0.26670818     6.63709603
H      -0.48444157    -0.24596357     7.63403987
H      -1.32020896    -1.27317436     6.47921421
H      -1.77779731     0.43076491     6.63152370
16 
# or10: geometry number 9. N3-H11 distance: 3.7 
C       0.56949490    -1.02115023    -0.03062007
C      -0.20535728     0.23293264     0.32397356
N      -1.43489602     0.02996080     0.87760698
O       0.27442357     1.34251968     0.19761570
H      -1.96867979     0.83330412     1.16519516
H      -1.79745374    -0.88755489     1.06061336
H       1.05014835    -1.04113081    -1.00762252
H       1.35613011    -1.04840419     0.72534334
H      -0.05960550    -1.90427171     0.08318216
N       0.02194599     0.01119478     5.35539628
H      -0.36386455    -0.01431135     4.41892475
H       0.40944651     0.93790846     5.48801930
C      -1.01524928    -0.26311854     6.34996216
H      -0.57128196    -0.24237393     7.34690600
H      -1.40704935    -1.26958472     6.19208034
H      -1.86463770     0.43435455     6.34438983
16 
# or10: geometry number 10. N3-H11 distance: 3.4 
C       0.56949490    -1.02115023    -0.03062007
C      -0.20535728     0.23293264     0.32397356
N      -1.43489602     0.02996080     0.87760698
O       0.27442357     1.34251968     0.19761570
H      -1.96867979     0.83330412     1.16519516
H      -1.79745374    -0.88755489     1.06061336
H       1.05014835    -1.04113081    -1.00762252
H       1.35613011    -1.04840419     0.72534334
H      -0.05960550    -1.90427171     0.08318216
N      -0.06489440     0.01478441     5.06826241
H      -0.45070494    -0.01072172     4.13179088
H       0.32260612     0.94149809     5.20088543
C      -1.10208967    -0.25952891     6.06282829
H      -0.65812235    -0.23878430     7.05977213
H      -1.49388974    -1.26599509     5.90494647
H      -1.95147809     0.43794418     6.05725596
16 
# or10: geometry number 11. N3-H11 distance: 3.1 
C       0.56949490    -1.02115023    -0.03062007
C      -0.20535728     0.23293264     0.32397356
N      -1.43489602     0.02996080     0.87760698
O       0.27442357     1.34251968     0.19761570
H      -1.96867979     0.83330412     1.16519516
H      -1.79745374    -0.88755489     1.06061336
H       1.05014835    -1.04113081    -1.00762252
H       1.35613011    -1.04840419     0.72534334
H      -0.05960550    -1.90427171     0.08318216
N      -0.15173479     0.01837405     4.78112853
H      -0.53754533    -0.00713208     3.84465700
H       0.23576573     0.94508773     4.91375155
C      -1.18893006    -0.25593927     5.77569441
H      -0.74496274    -0.23519466     6.77263825
H      -1.58073013    -1.26240545     5.61781259
H      -2.03831848     0.44153382     5.77012208
16 
# or10: geometry number 12. N3-H11 distance: 2.9 
C       0.56949490    -1.02115023    -0.03062007
C      -0.20535728     0.23293264     0.32397356
N      -1.43489602     0.02996080     0.87760698
O       0.27442357     1.34251968     0.19761570
H      -1.96867979     0.83330412     1.16519516
H      -1.79745374    -0.88755489     1.06061336
H       1.05014835    -1.04113081    -1.00762252
H       1.35613011    -1.04840419     0.72534334
H      -0.05960550    -1.90427171     0.08318216
N      -0.20962838     0.02076713     4.58970595
H      -0.59543892    -0.00473900     3.65323442
H       0.17787214     0.94748081     4.72232897
C      -1.24682365    -0.25354619     5.58427183
H      -0.80285633    -0.23280158     6.58121567
H      -1.63862372    -1.26001237     5.42639001
H      -2.09621207     0.44392690     5.57869950
16 
# or10: geometry number 13. N3-H11 distance: 2.7 
C       0.56949490    -1.02115023    -0.03062007
C      -0.20535728     0.23293264     0.32397356
N      -1.43489602     0.02996080     0.87760698
O       0.27442357     1.34251968     0.19761570
H      -1.96867979     0.83330412     1.16519516
H      -1.79745374    -0.88755489     1.06061336
H       1.05014835    -1.04113081    -1.00762252
H       1.35613011    -1.04840419     0.72534334
H      -0.05960550    -1.90427171     0.08318216
N      -0.26752197     0.02316022     4.39828337
H      -0.65333251    -0.00234591     3.46181184
H       0.11997855     0.94987390     4.53090639
C      -1.30471724    -0.25115310     5.39284925
H      -0.86074992    -0.23040849     6.38979309
H      -1.69651731    -1.25761928     5.23496743
H      -2.15410566     0.44631999     5.38727692
16 
# or10: geometry number 14. N3-H11 distance: 2.5 
C       0.56949490    -1.02115023    -0.03062007
C      -0.20535728     0.23293264     0.32397356
N      -1.43489602     0.02996080     0.87760698
O       0.27442357     1.34251968     0.19761570
H      -1.96867979     0.83330412     1.16519516
H      -1.79745374    -0.88755489     1.06061336
H       1.05014835    -1.04113081    -1.00762252
H       1.35613011    -1.04840419     0.72534334
H      -0.05960550    -1.90427171     0.08318216
N      -0.32541556     0.02555331     4.20686079
H      -0.71122610     0.00004718     3.27038926
H       0.06208496     0.95226699     4.33948381
C      -1.36261083    -0.24876001     5.20142667
H      -0.91864351    -0.22801540     6.19837051
H      -1.75441090    -1.25522619     5.04354485
H      -2.21199925     0.44871308     5.19585434
16 
# or10: geometry number 15. N3-H11 distance: 2.4 
C       0.56949490    -1.02115023    -0.03062007
C      -0.20535728     0.23293264     0.32397356
N      -1.43489602     0.02996080     0.87760698
O       0.27442357     1.34251968     0.19761570
H      -1.96867979     0.83330412     1.16519516
H      -1.79745374    -0.88755489     1.06061336
H       1.05014835    -1.04113081    -1.00762252
H       1.35613011    -1.04840419     0.72534334
H      -0.05960550    -1.90427171     0.08318216
N      -0.35436236     0.02674986     4.11114950
H      -0.74017290     0.00124373     3.17467797
H       0.03313816     0.95346354     4.24377252
C      -1.39155763    -0.24756346     5.10571538
H      -0.94759031    -0.22681885     6.10265922
H      -1.78335770    -1.25402964     4.94783356
H      -2.24094605     0.44990963     5.10014305
16 
# or10: geometry number 16. N3-H11 distance: 2.3 
C       0.56949490    -1.02115023    -0.03062007
C      -0.20535728     0.23293264     0.32397356
N      -1.43489602     0.02996080     0.87760698
O       0.27442357     1.34251968     0.19761570
H      -1.96867979     0.83330412     1.16519516
H      -1.79745374    -0.88755489     1.06061336
H       1.05014835    -1.04113081    -1.00762252
H       1.35613011    -1.04840419     0.72534334
H      -0.05960550    -1.90427171     0.08318216
N      -0.38330916     0.02794640     4.01543821
H      -0.76911970     0.00244027     3.07896668
H       0.00419136     0.95466008     4.14806123
C      -1.42050443    -0.24636692     5.01000409
H      -0.97653711    -0.22562231     6.00694793
H      -1.81230450    -1.25283310     4.85212227
H      -2.26989285     0.45110617     5.00443176
16 
# or10: geometry number 17. N3-H11 distance: 2.2 
C       0.56949490    -1.02115023    -0.03062007
C      -0.20535728     0.23293264     0.32397356
N      -1.43489602     0.02996080     0.87760698
O       0.27442357     1.34251968     0.19761570
H      -1.96867979     0.83330412     1.16519516
H      -1.79745374    -0.88755489     1.06061336
H       1.05014835    -1.04113081    -1.00762252
H       1.35613011    -1.04840419     0.72534334
H      -0.05960550    -1.90427171     0.08318216
N      -0.41225595     0.02914295     3.91972691
H      -0.79806649     0.00363682     2.98325538
H      -0.02475543     0.95585663     4.05234993
C      -1.44945122    -0.24517037     4.91429279
H      -1.00548390    -0.22442576     5.91123663
H      -1.84125129    -1.25163655     4.75641097
H      -2.29883964     0.45230272     4.90872046
16 
# or10: geometry number 18. N3-H11 distance: 2.1 
C       0.56949490    -1.02115023    -0.03062007
C      -0.20535728     0.23293264     0.32397356
N      -1.43489602     0.02996080     0.87760698
O       0.27442357     1.34251968     0.19761570
H      -1.96867979     0.83330412     1.16519516
H      -1.79745374    -0.88755489     1.06061336
H       1.05014835    -1.04113081    -1.00762252
H       1.35613011    -1.04840419     0.72534334
H      -0.05960550    -1.90427171     0.08318216
N      -0.44120275     0.03033949     3.82401562
H      -0.82701329     0.00483336     2.88754409
H      -0.05370223     0.95705317     3.95663864
C      -1.47839802    -0.24397383     4.81858150
H      -1.03443070    -0.22322922     5.81552534
H      -1.87019809    -1.25044001     4.66069968
H      -2.32778644     0.45349926     4.81300917
16 
# or10: geometry number 19. N3-H11 distance: 2.0 
C       0.56949490    -1.02115023    -0.03062007
C      -0.20535728     0.23293264     0.32397356
N      -1.43489602     0.02996080     0.87760698
O       0.27442357     1.34251968     0.19761570
H      -1.96867979     0.83330412     1.16519516
H      -1.79745374    -0.88755489     1.06061336
H       1.05014835    -1.04113081    -1.00762252
H       1.35613011    -1.04840419     0.72534334
H      -0.05960550    -1.90427171     0.08318216
N      -0.47014955     0.03153604     3.72830433
H      -0.85596009     0.00602991     2.79183280
H      -0.08264903     0.95824972     3.86092735
C      -1.50734482    -0.24277728     4.72287021
H      -1.06337750    -0.22203267     5.71981405
H      -1.89914489    -1.24924346     4.56498839
H      -2.35673324     0.45469581     4.71729788
16 
# or10: geometry number 20. N3-H11 distance: 1.9 
C       0.56949490    -1.02115023    -0.03062007
C      -0.20535728     0.23293264     0.32397356
N      -1.43489602     0.02996080     0.87760698
O       0.27442357     1.34251968     0.19761570
H      -1.96867979     0.83330412     1.16519516
H      -1.79745374    -0.88755489     1.06061336
H       1.05014835    -1.04113081    -1.00762252
H       1.35613011    -1.04840419     0.72534334
H      -0.05960550    -1.90427171     0.08318216
N      -0.49909634     0.03273258     3.63259304
H      -0.88490688     0.00722645     2.69612151
H      -0.11159582     0.95944626     3.76521606
C      -1.53629161    -0.24158074     4.62715892
H      -1.09232429    -0.22083613     5.62410276
H      -1.92809168    -1.24804692     4.46927710
H      -2.38568003     0.45589235     4.62158659
16 
# or10: geometry number 21. N3-H11 distance: 1.85 
C       0.56949490    -1.02115023    -0.03062007
C      -0.20535728     0.23293264     0.32397356
N      -1.43489602     0.02996080     0.87760698
O       0.27442357     1.34251968     0.19761570
H      -1.96867979     0.83330412     1.16519516
H      -1.79745374    -0.88755489     1.06061336
H       1.05014835    -1.04113081    -1.00762252
H       1.35613011    -1.04840419     0.72534334
H      -0.05960550    -1.90427171     0.08318216
N      -0.51356974     0.03333085     3.58473740
H      -0.89938028     0.00782472     2.64826587
H      -0.12606922     0.96004453     3.71736042
C      -1.55076501    -0.24098247     4.57930328
H      -1.10679769    -0.22023786     5.57624712
H      -1.94256508    -1.24744865     4.42142146
H      -2.40015343     0.45649062     4.57373095
16 
# or10: geometry number 22. N3-H11 distance: 1.8 
C       0.56949490    -1.02115023    -0.03062007
C      -0.20535728     0.23293264     0.32397356
N      -1.43489602     0.02996080     0.87760698
O       0.27442357     1.34251968     0.19761570
H      -1.96867979     0.83330412     1.16519516
H      -1.79745374    -0.88755489     1.06061336
H       1.05014835    -1.04113081    -1.00762252
H       1.35613011    -1.04840419     0.72534334
H      -0.05960550    -1.90427171     0.08318216
N      -0.52804314     0.03392913     3.53688175
H      -0.91385368     0.00842300     2.60041022
H      -0.14054262     0.96064281     3.66950477
C      -1.56523841    -0.24038419     4.53144763
H      -1.12127109    -0.21963958     5.52839147
H      -1.95703848    -1.24685037     4.37356581
H      -2.41462683     0.45708890     4.52587530
16 
# or10: geometry number 23. N3-H11 distance: 1.75 
C       0.56949490    -1.02115023    -0.03062007
C      -0.20535728     0.23293264     0.32397356
N      -1.43489602     0.02996080     0.87760698
O       0.27442357     1.34251968     0.19761570
H      -1.96867979     0.83330412     1.16519516
H      -1.79745374    -0.88755489     1.06061336
H       1.05014835    -1.04113081    -1.00762252
H       1.35613011    -1.04840419     0.72534334
H      -0.05960550    -1.90427171     0.08318216
N      -0.54251654     0.03452740     3.48902610
H      -0.92832708     0.00902127     2.55255457
H      -0.15501602     0.96124108     3.62164912
C      -1.57971181    -0.23978592     4.48359198
H      -1.13574449    -0.21904131     5.48053582
H      -1.97151188    -1.24625210     4.32571016
H      -2.42910023     0.45768717     4.47801965
16 
# or10: geometry number 24. N3-H11 distance: 1.7 
C       0.56949490    -1.02115023    -0.03062007
C      -0.20535728     0.23293264     0.32397356
N      -1.43489602     0.02996080     0.87760698
O       0.27442357     1.34251968     0.19761570
H      -1.96867979     0.83330412     1.16519516
H      -1.79745374    -0.88755489     1.06061336
H       1.05014835    -1.04113081    -1.00762252
H       1.35613011    -1.04840419     0.72534334
H      -0.05960550    -1.90427171     0.08318216
N      -0.55698994     0.03512567     3.44117046
H      -0.94280048     0.00961954     2.50469893
H      -0.16948942     0.96183935     3.57379348
C      -1.59418521    -0.23918765     4.43573634
H      -1.15021789    -0.21844304     5.43268018
H      -1.98598528    -1.24565383     4.27785452
H      -2.44357363     0.45828544     4.43016401
16 
# or10: geometry number 25. N3-H11 distance: 1.65 
C       0.56949490    -1.02115023    -0.03062007
C      -0.20535728     0.23293264     0.32397356
N      -1.43489602     0.02996080     0.87760698
O       0.27442357     1.34251968     0.19761570
H      -1.96867979     0.83330412     1.16519516
H      -1.79745374    -0.88755489     1.06061336
H       1.05014835    -1.04113081    -1.00762252
H       1.35613011    -1.04840419     0.72534334
H      -0.05960550    -1.90427171     0.08318216
N      -0.57146334     0.03572394     3.39331481
H      -0.95727388     0.01021781     2.45684328
H      -0.18396282     0.96243762     3.52593783
C      -1.60865861    -0.23858938     4.38788069
H      -1.16469129    -0.21784477     5.38482453
H      -2.00045868    -1.24505556     4.22999887
H      -2.45804703     0.45888371     4.38230836
16 
# or10: geometry number 26. N3-H11 distance: 1.6 
C       0.56949490    -1.02115023    -0.03062007
C      -0.20535728     0.23293264     0.32397356
N      -1.43489602     0.02996080     0.87760698
O       0.27442357     1.34251968     0.19761570
H      -1.96867979     0.83330412     1.16519516
H      -1.79745374    -0.88755489     1.06061336
H       1.05014835    -1.04113081    -1.00762252
H       1.35613011    -1.04840419     0.72534334
H      -0.05960550    -1.90427171     0.08318216
N      -0.58593673     0.03632222     3.34545917
H      -0.97174727     0.01081609     2.40898764
H      -0.19843621     0.96303590     3.47808219
C      -1.62313200    -0.23799110     4.34002505
H      -1.17916468    -0.21724649     5.33696889
H      -2.01493207    -1.24445728     4.18214323
H      -2.47252042     0.45948199     4.33445272
16 
# or10: geometry number 27. N3-H11 distance: 1.55 
C       0.56949490    -1.02115023    -0.03062007
C      -0.20535728     0.23293264     0.32397356
N      -1.43489602     0.02996080     0.87760698
O       0.27442357     1.34251968     0.19761570
H      -1.96867979     0.83330412     1.16519516
H      -1.79745374    -0.88755489     1.06061336
H       1.05014835    -1.04113081    -1.00762252
H       1.35613011    -1.04840419     0.72534334
H      -0.05960550    -1.90427171     0.08318216
N      -0.60041013     0.03692049     3.29760352
H      -0.98622067     0.01141436     2.36113199
H      -0.21290961     0.96363417     3.43022654
C      -1.63760540    -0.23739283     4.29216940
H      -1.19363808    -0.21664822     5.28911324
H      -2.02940547    -1.24385901     4.13428758
H      -2.48699382     0.46008026     4.28659707
16 
# or10: geometry number 28. N3-H11 distance: 1.5 
C       0.56949490    -1.02115023    -0.03062007
C      -0.20535728     0.23293264     0.32397356
N      -1.43489602     0.02996080     0.87760698
O       0.27442357     1.34251968     0.19761570
H      -1.96867979     0.83330412     1.16519516
H      -1.79745374    -0.88755489     1.06061336
H       1.05014835    -1.04113081    -1.00762252
H       1.35613011    -1.04840419     0.72534334
H      -0.05960550    -1.90427171     0.08318216
N      -0.61488353     0.03751876     3.24974788
H      -1.00069407     0.01201263     2.31327635
H      -0.22738301     0.96423244     3.38237090
C      -1.65207880    -0.23679456     4.24431376
H      -1.20811148    -0.21604995     5.24125760
H      -2.04387887    -1.24326074     4.08643194
H      -2.50146722     0.46067853     4.23874143
16 
# or10: geometry number 29. N3-H11 distance: 1.45 
C       0.56949490    -1.02115023    -0.03062007
C      -0.20535728     0.23293264     0.32397356
N      -1.43489602     0.02996080     0.87760698
O       0.27442357     1.34251968     0.19761570
H      -1.96867979     0.83330412     1.16519516
H      -1.79745374    -0.88755489     1.06061336
H       1.05014835    -1.04113081    -1.00762252
H       1.35613011    -1.04840419     0.72534334
H      -0.05960550    -1.90427171     0.08318216
N      -0.62935693     0.03811703     3.20189223
H      -1.01516747     0.01261090     2.26542070
H      -0.24185641     0.96483071     3.33451525
C      -1.66655220    -0.23619629     4.19645811
H      -1.22258488    -0.21545168     5.19340195
H      -2.05835227    -1.24266247     4.03857629
H      -2.51594062     0.46127680     4.19088578
16 
# or10: geometry number 30. N3-H11 distance: 1.4 
C       0.56949490    -1.02115023    -0.03062007
C      -0.20535728     0.23293264     0.32397356
N      -1.43489602     0.02996080     0.87760698
O       0.27442357     1.34251968     0.19761570
H      -1.96867979     0.83330412     1.16519516
H      -1.79745374    -0.88755489     1.06061336
H       1.05014835    -1.04113081    -1.00762252
H       1.35613011    -1.04840419     0.72534334
H      -0.05960550    -1.90427171     0.08318216
N      -0.64383033     0.03871530     3.15403659
H      -1.02964087     0.01320917     2.21756506
H      -0.25632981     0.96542898     3.28665961
C      -1.68102560    -0.23559802     4.14860247
H      -1.23705828    -0.21485341     5.14554631
H      -2.07282567    -1.24206420     3.99072065
H      -2.53041402     0.46187507     4.14303014
