16 
# or11: geometry number 1. N3-C13 distance: 10 
C       0.68124957    -1.02576972     0.33889176
C      -0.09360261     0.22831315     0.69348539
N      -1.32314135     0.02534131     1.24711881
O       0.38617824     1.33790019     0.56712754
H      -1.85692512     0.82868463     1.53470700
H      -1.68569907    -0.89217438     1.43012519
H       1.16190302    -1.04575030    -0.63811068
H       1.46788478    -1.05302368     1.09485517
H       0.05214917    -1.90889120     0.45269399
N       2.70184396    -0.64599071    11.95676451
H       2.30770237     0.11762775    12.49343809
H       2.39067902    -1.50448989    12.39573981
C       2.25502435    -0.58502908    10.56506806
H       2.70334044    -1.40940517    10.00752785
H       2.61247587     0.34211799    10.11336587
H       1.16650020    -0.63285841    10.42088772
16 
# or11: geometry number 2. N3-C13 distance: 9 
C       0.68124957    -1.02576972     0.33889176
C      -0.09360261     0.22831315     0.69348539
N      -1.32314135     0.02534131     1.24711881
O       0.38617824     1.33790019     0.56712754
H      -1.85692512     0.82868463     1.53470700
H      -1.68569907    -0.89217438     1.43012519
H       1.16190302    -1.04575030    -0.63811068
H       1.46788478    -1.05302368     1.09485517
H       0.05214917    -1.90889120     0.45269399
N       2.34402739    -0.58495367    11.02496958
H       1.94988580     0.17866479    11.56164316
H       2.03286245    -1.44345285    11.46394488
C       1.89720778    -0.52399204     9.63327313
H       2.34552387    -1.34836813     9.07573292
H       2.25465930     0.40315503     9.18157094
H       0.80868363    -0.57182137     9.48909279
16 
# or11: geometry number 3. N3-C13 distance: 8 
C       0.68124957    -1.02576972     0.33889176
C      -0.09360261     0.22831315     0.69348539
N      -1.32314135     0.02534131     1.24711881
O       0.38617824     1.33790019     0.56712754
H      -1.85692512     0.82868463     1.53470700
H      -1.68569907    -0.89217438     1.43012519
H       1.16190302    -1.04575030    -0.63811068
H       1.46788478    -1.05302368     1.09485517
H       0.05214917    -1.90889120     0.45269399
N       1.98621082    -0.52391663    10.09317466
H       1.59206923     0.23970183    10.62984824
H       1.67504588    -1.38241581    10.53214996
C       1.53939121    -0.46295500     8.70147821
H       1.98770730    -1.28733109     8.14393800
H       1.89684273     0.46419207     8.24977602
H       0.45086706    -0.51078433     8.55729787
16 
# or11: geometry number 4. N3-C13 distance: 7 
C       0.68124957    -1.02576972     0.33889176
C      -0.09360261     0.22831315     0.69348539
N      -1.32314135     0.02534131     1.24711881
O       0.38617824     1.33790019     0.56712754
H      -1.85692512     0.82868463     1.53470700
H      -1.68569907    -0.89217438     1.43012519
H       1.16190302    -1.04575030    -0.63811068
H       1.46788478    -1.05302368     1.09485517
H       0.05214917    -1.90889120     0.45269399
N       1.62839425    -0.46287959     9.16137973
H       1.23425266     0.30073887     9.69805331
H       1.31722931    -1.32137877     9.60035503
C       1.18157464    -0.40191796     7.76968328
H       1.62989073    -1.22629405     7.21214307
H       1.53902616     0.52522911     7.31798109
H       0.09305049    -0.44974729     7.62550294
16 
# or11: geometry number 5. N3-C13 distance: 6 
C       0.68124957    -1.02576972     0.33889176
C      -0.09360261     0.22831315     0.69348539
N      -1.32314135     0.02534131     1.24711881
O       0.38617824     1.33790019     0.56712754
H      -1.85692512     0.82868463     1.53470700
H      -1.68569907    -0.89217438     1.43012519
H       1.16190302    -1.04575030    -0.63811068
H       1.46788478    -1.05302368     1.09485517
H       0.05214917    -1.90889120     0.45269399
N       1.27057768    -0.40184255     8.22958481
H       0.87643609     0.36177591     8.76625839
H       0.95941274    -1.26034173     8.66856011
C       0.82375807    -0.34088092     6.83788836
H       1.27207416    -1.16525701     6.28034815
H       1.18120959     0.58626615     6.38618617
H      -0.26476608    -0.38871025     6.69370802
16 
# or11: geometry number 6. N3-C13 distance: 5 
C       0.68124957    -1.02576972     0.33889176
C      -0.09360261     0.22831315     0.69348539
N      -1.32314135     0.02534131     1.24711881
O       0.38617824     1.33790019     0.56712754
H      -1.85692512     0.82868463     1.53470700
H      -1.68569907    -0.89217438     1.43012519
H       1.16190302    -1.04575030    -0.63811068
H       1.46788478    -1.05302368     1.09485517
H       0.05214917    -1.90889120     0.45269399
N       0.91276111    -0.34080552     7.29778988
H       0.51861952     0.42281294     7.83446346
H       0.60159617    -1.19930470     7.73676518
C       0.46594150    -0.27984389     5.90609343
H       0.91425759    -1.10421998     5.34855322
H       0.82339302     0.64730318     5.45439124
H      -0.62258265    -0.32767322     5.76191309
16 
# or11: geometry number 7. N3-C13 distance: 4.7 
C       0.68124957    -1.02576972     0.33889176
C      -0.09360261     0.22831315     0.69348539
N      -1.32314135     0.02534131     1.24711881
O       0.38617824     1.33790019     0.56712754
H      -1.85692512     0.82868463     1.53470700
H      -1.68569907    -0.89217438     1.43012519
H       1.16190302    -1.04575030    -0.63811068
H       1.46788478    -1.05302368     1.09485517
H       0.05214917    -1.90889120     0.45269399
N       0.80541614    -0.32249440     7.01825141
H       0.41127455     0.44112406     7.55492499
H       0.49425120    -1.18099358     7.45722671
C       0.35859653    -0.26153277     5.62655496
H       0.80691262    -1.08590886     5.06901475
H       0.71604805     0.66561430     5.17485277
H      -0.72992762    -0.30936210     5.48237462
16 
# or11: geometry number 8. N3-C13 distance: 4.4 
C       0.68124957    -1.02576972     0.33889176
C      -0.09360261     0.22831315     0.69348539
N      -1.32314135     0.02534131     1.24711881
O       0.38617824     1.33790019     0.56712754
H      -1.85692512     0.82868463     1.53470700
H      -1.68569907    -0.89217438     1.43012519
H       1.16190302    -1.04575030    -0.63811068
H       1.46788478    -1.05302368     1.09485517
H       0.05214917    -1.90889120     0.45269399
N       0.69807117    -0.30418329     6.73871293
H       0.30392958     0.45943517     7.27538651
H       0.38690623    -1.16268247     7.17768823
C       0.25125156    -0.24322166     5.34701648
H       0.69956765    -1.06759775     4.78947627
H       0.60870308     0.68392541     4.89531429
H      -0.83727259    -0.29105099     5.20283614
16 
# or11: geometry number 9. N3-C13 distance: 4.2 
C       0.68124957    -1.02576972     0.33889176
C      -0.09360261     0.22831315     0.69348539
N      -1.32314135     0.02534131     1.24711881
O       0.38617824     1.33790019     0.56712754
H      -1.85692512     0.82868463     1.53470700
H      -1.68569907    -0.89217438     1.43012519
H       1.16190302    -1.04575030    -0.63811068
H       1.46788478    -1.05302368     1.09485517
H       0.05214917    -1.90889120     0.45269399
N       0.62650785    -0.29197588     6.55235394
H       0.23236626     0.47164258     7.08902752
H       0.31534291    -1.15047506     6.99132924
C       0.17968824    -0.23101425     5.16065749
H       0.62800433    -1.05539034     4.60311728
H       0.53713976     0.69613282     4.70895530
H      -0.90883591    -0.27884358     5.01647715
16 
# or11: geometry number 10. N3-C13 distance: 4 
C       0.68124957    -1.02576972     0.33889176
C      -0.09360261     0.22831315     0.69348539
N      -1.32314135     0.02534131     1.24711881
O       0.38617824     1.33790019     0.56712754
H      -1.85692512     0.82868463     1.53470700
H      -1.68569907    -0.89217438     1.43012519
H       1.16190302    -1.04575030    -0.63811068
H       1.46788478    -1.05302368     1.09485517
H       0.05214917    -1.90889120     0.45269399
N       0.55494454    -0.27976848     6.36599496
H       0.16080295     0.48384998     6.90266854
H       0.24377960    -1.13826766     6.80497026
C       0.10812493    -0.21880685     4.97429851
H       0.55644102    -1.04318294     4.41675830
H       0.46557645     0.70834022     4.52259632
H      -0.98039922    -0.26663618     4.83011817
16 
# or11: geometry number 11. N3-C13 distance: 3.8 
C       0.68124957    -1.02576972     0.33889176
C      -0.09360261     0.22831315     0.69348539
N      -1.32314135     0.02534131     1.24711881
O       0.38617824     1.33790019     0.56712754
H      -1.85692512     0.82868463     1.53470700
H      -1.68569907    -0.89217438     1.43012519
H       1.16190302    -1.04575030    -0.63811068
H       1.46788478    -1.05302368     1.09485517
H       0.05214917    -1.90889120     0.45269399
N       0.48338123    -0.26756107     6.17963597
H       0.08923964     0.49605739     6.71630955
H       0.17221629    -1.12606025     6.61861127
C       0.03656162    -0.20659944     4.78793952
H       0.48487771    -1.03097553     4.23039931
H       0.39401314     0.72054763     4.33623733
H      -1.05196253    -0.25442877     4.64375918
16 
# or11: geometry number 12. N3-C13 distance: 3.7 
C       0.68124957    -1.02576972     0.33889176
C      -0.09360261     0.22831315     0.69348539
N      -1.32314135     0.02534131     1.24711881
O       0.38617824     1.33790019     0.56712754
H      -1.85692512     0.82868463     1.53470700
H      -1.68569907    -0.89217438     1.43012519
H       1.16190302    -1.04575030    -0.63811068
H       1.46788478    -1.05302368     1.09485517
H       0.05214917    -1.90889120     0.45269399
N       0.44759957    -0.26145736     6.08645648
H       0.05345798     0.50216110     6.62313006
H       0.13643463    -1.11995654     6.52543178
C       0.00077996    -0.20049573     4.69476003
H       0.44909605    -1.02487182     4.13721982
H       0.35823148     0.72665134     4.24305784
H      -1.08774419    -0.24832506     4.55057969
16 
# or11: geometry number 13. N3-C13 distance: 3.6 
C       0.68124957    -1.02576972     0.33889176
C      -0.09360261     0.22831315     0.69348539
N      -1.32314135     0.02534131     1.24711881
O       0.38617824     1.33790019     0.56712754
H      -1.85692512     0.82868463     1.53470700
H      -1.68569907    -0.89217438     1.43012519
H       1.16190302    -1.04575030    -0.63811068
H       1.46788478    -1.05302368     1.09485517
H       0.05214917    -1.90889120     0.45269399
N       0.41181791    -0.25535366     5.99327699
H       0.01767632     0.50826480     6.52995057
H       0.10065297    -1.11385284     6.43225229
C      -0.03500170    -0.19439203     4.60158054
H       0.41331439    -1.01876812     4.04404033
H       0.32244982     0.73275504     4.14987835
H      -1.12352585    -0.24222136     4.45740020
16 
# or11: geometry number 14. N3-C13 distance: 3.5 
C       0.68124957    -1.02576972     0.33889176
C      -0.09360261     0.22831315     0.69348539
N      -1.32314135     0.02534131     1.24711881
O       0.38617824     1.33790019     0.56712754
H      -1.85692512     0.82868463     1.53470700
H      -1.68569907    -0.89217438     1.43012519
H       1.16190302    -1.04575030    -0.63811068
H       1.46788478    -1.05302368     1.09485517
H       0.05214917    -1.90889120     0.45269399
N       0.37603625    -0.24924996     5.90009750
H      -0.01810534     0.51436850     6.43677108
H       0.06487131    -1.10774914     6.33907280
C      -0.07078336    -0.18828833     4.50840105
H       0.37753273    -1.01266442     3.95086084
H       0.28666816     0.73885874     4.05669886
H      -1.15930751    -0.23611766     4.36422071
16 
# or11: geometry number 15. N3-C13 distance: 3.4 
C       0.68124957    -1.02576972     0.33889176
C      -0.09360261     0.22831315     0.69348539
N      -1.32314135     0.02534131     1.24711881
O       0.38617824     1.33790019     0.56712754
H      -1.85692512     0.82868463     1.53470700
H      -1.68569907    -0.89217438     1.43012519
H       1.16190302    -1.04575030    -0.63811068
H       1.46788478    -1.05302368     1.09485517
H       0.05214917    -1.90889120     0.45269399
N       0.34025460    -0.24314625     5.80691800
H      -0.05388699     0.52047221     6.34359158
H       0.02908966    -1.10164543     6.24589330
C      -0.10656501    -0.18218462     4.41522155
H       0.34175108    -1.00656071     3.85768134
H       0.25088651     0.74496245     3.96351936
H      -1.19508916    -0.23001395     4.27104121
16 
# or11: geometry number 16. N3-C13 distance: 3.3 
C       0.68124957    -1.02576972     0.33889176
C      -0.09360261     0.22831315     0.69348539
N      -1.32314135     0.02534131     1.24711881
O       0.38617824     1.33790019     0.56712754
H      -1.85692512     0.82868463     1.53470700
H      -1.68569907    -0.89217438     1.43012519
H       1.16190302    -1.04575030    -0.63811068
H       1.46788478    -1.05302368     1.09485517
H       0.05214917    -1.90889120     0.45269399
N       0.30447294    -0.23704255     5.71373851
H      -0.08966865     0.52657591     6.25041209
H      -0.00669200    -1.09554173     6.15271381
C      -0.14234667    -0.17608092     4.32204206
H       0.30596942    -1.00045701     3.76450185
H       0.21510485     0.75106615     3.87033987
H      -1.23087082    -0.22391025     4.17786172
16 
# or11: geometry number 17. N3-C13 distance: 3.2 
C       0.68124957    -1.02576972     0.33889176
C      -0.09360261     0.22831315     0.69348539
N      -1.32314135     0.02534131     1.24711881
O       0.38617824     1.33790019     0.56712754
H      -1.85692512     0.82868463     1.53470700
H      -1.68569907    -0.89217438     1.43012519
H       1.16190302    -1.04575030    -0.63811068
H       1.46788478    -1.05302368     1.09485517
H       0.05214917    -1.90889120     0.45269399
N       0.26869128    -0.23093885     5.62055902
H      -0.12545031     0.53267961     6.15723260
H      -0.04247366    -1.08943803     6.05953432
C      -0.17812833    -0.16997722     4.22886257
H       0.27018776    -0.99435331     3.67132236
H       0.17932319     0.75716985     3.77716038
H      -1.26665248    -0.21780655     4.08468223
16 
# or11: geometry number 18. N3-C13 distance: 3.1 
C       0.68124957    -1.02576972     0.33889176
C      -0.09360261     0.22831315     0.69348539
N      -1.32314135     0.02534131     1.24711881
O       0.38617824     1.33790019     0.56712754
H      -1.85692512     0.82868463     1.53470700
H      -1.68569907    -0.89217438     1.43012519
H       1.16190302    -1.04575030    -0.63811068
H       1.46788478    -1.05302368     1.09485517
H       0.05214917    -1.90889120     0.45269399
N       0.23290963    -0.22483514     5.52737953
H      -0.16123196     0.53878332     6.06405311
H      -0.07825531    -1.08333432     5.96635483
C      -0.21390998    -0.16387351     4.13568308
H       0.23440611    -0.98824960     3.57814287
H       0.14354154     0.76327356     3.68398089
H      -1.30243413    -0.21170284     3.99150274
16 
# or11: geometry number 19. N3-C13 distance: 3 
C       0.68124957    -1.02576972     0.33889176
C      -0.09360261     0.22831315     0.69348539
N      -1.32314135     0.02534131     1.24711881
O       0.38617824     1.33790019     0.56712754
H      -1.85692512     0.82868463     1.53470700
H      -1.68569907    -0.89217438     1.43012519
H       1.16190302    -1.04575030    -0.63811068
H       1.46788478    -1.05302368     1.09485517
H       0.05214917    -1.90889120     0.45269399
N       0.19712797    -0.21873144     5.43420003
H      -0.19701362     0.54488702     5.97087361
H      -0.11403697    -1.07723062     5.87317533
C      -0.24969164    -0.15776981     4.04250358
H       0.19862445    -0.98214590     3.48496337
H       0.10775988     0.76937726     3.59080139
H      -1.33821579    -0.20559914     3.89832324
16 
# or11: geometry number 20. N3-C13 distance: 2.9 
C       0.68124957    -1.02576972     0.33889176
C      -0.09360261     0.22831315     0.69348539
N      -1.32314135     0.02534131     1.24711881
O       0.38617824     1.33790019     0.56712754
H      -1.85692512     0.82868463     1.53470700
H      -1.68569907    -0.89217438     1.43012519
H       1.16190302    -1.04575030    -0.63811068
H       1.46788478    -1.05302368     1.09485517
H       0.05214917    -1.90889120     0.45269399
N       0.16134631    -0.21262773     5.34102054
H      -0.23279528     0.55099073     5.87769412
H      -0.14981863    -1.07112691     5.77999584
C      -0.28547330    -0.15166610     3.94932409
H       0.16284279    -0.97604219     3.39178388
H       0.07197822     0.77548097     3.49762190
H      -1.37399745    -0.19949543     3.80514375
16 
# or11: geometry number 21. N3-C13 distance: 2.85 
C       0.68124957    -1.02576972     0.33889176
C      -0.09360261     0.22831315     0.69348539
N      -1.32314135     0.02534131     1.24711881
O       0.38617824     1.33790019     0.56712754
H      -1.85692512     0.82868463     1.53470700
H      -1.68569907    -0.89217438     1.43012519
H       1.16190302    -1.04575030    -0.63811068
H       1.46788478    -1.05302368     1.09485517
H       0.05214917    -1.90889120     0.45269399
N       0.14345548    -0.20957588     5.29443080
H      -0.25068611     0.55404258     5.83110438
H      -0.16770946    -1.06807506     5.73340610
C      -0.30336413    -0.14861425     3.90273435
H       0.14495196    -0.97299034     3.34519414
H       0.05408739     0.77853282     3.45103216
H      -1.39188828    -0.19644358     3.75855401
16 
# or11: geometry number 22. N3-C13 distance: 2.8 
C       0.68124957    -1.02576972     0.33889176
C      -0.09360261     0.22831315     0.69348539
N      -1.32314135     0.02534131     1.24711881
O       0.38617824     1.33790019     0.56712754
H      -1.85692512     0.82868463     1.53470700
H      -1.68569907    -0.89217438     1.43012519
H       1.16190302    -1.04575030    -0.63811068
H       1.46788478    -1.05302368     1.09485517
H       0.05214917    -1.90889120     0.45269399
N       0.12556466    -0.20652403     5.24784105
H      -0.26857693     0.55709443     5.78451463
H      -0.18560028    -1.06502321     5.68681635
C      -0.32125495    -0.14556240     3.85614460
H       0.12706114    -0.96993849     3.29860439
H       0.03619657     0.78158467     3.40444241
H      -1.40977910    -0.19339173     3.71196426
16 
# or11: geometry number 23. N3-C13 distance: 2.75 
C       0.68124957    -1.02576972     0.33889176
C      -0.09360261     0.22831315     0.69348539
N      -1.32314135     0.02534131     1.24711881
O       0.38617824     1.33790019     0.56712754
H      -1.85692512     0.82868463     1.53470700
H      -1.68569907    -0.89217438     1.43012519
H       1.16190302    -1.04575030    -0.63811068
H       1.46788478    -1.05302368     1.09485517
H       0.05214917    -1.90889120     0.45269399
N       0.10767383    -0.20347218     5.20125130
H      -0.28646776     0.56014628     5.73792488
H      -0.20349111    -1.06197136     5.64022660
C      -0.33914578    -0.14251055     3.80955485
H       0.10917031    -0.96688664     3.25201464
H       0.01830574     0.78463652     3.35785266
H      -1.42766993    -0.19033988     3.66537451
16 
# or11: geometry number 24. N3-C13 distance: 2.7 
C       0.68124957    -1.02576972     0.33889176
C      -0.09360261     0.22831315     0.69348539
N      -1.32314135     0.02534131     1.24711881
O       0.38617824     1.33790019     0.56712754
H      -1.85692512     0.82868463     1.53470700
H      -1.68569907    -0.89217438     1.43012519
H       1.16190302    -1.04575030    -0.63811068
H       1.46788478    -1.05302368     1.09485517
H       0.05214917    -1.90889120     0.45269399
N       0.08978300    -0.20042033     5.15466156
H      -0.30435859     0.56319813     5.69133514
H      -0.22138194    -1.05891951     5.59363686
C      -0.35703661    -0.13945870     3.76296511
H       0.09127948    -0.96383479     3.20542490
H       0.00041491     0.78768837     3.31126292
H      -1.44556076    -0.18728803     3.61878477
16 
# or11: geometry number 25. N3-C13 distance: 2.65 
C       0.68124957    -1.02576972     0.33889176
C      -0.09360261     0.22831315     0.69348539
N      -1.32314135     0.02534131     1.24711881
O       0.38617824     1.33790019     0.56712754
H      -1.85692512     0.82868463     1.53470700
H      -1.68569907    -0.89217438     1.43012519
H       1.16190302    -1.04575030    -0.63811068
H       1.46788478    -1.05302368     1.09485517
H       0.05214917    -1.90889120     0.45269399
N       0.07189217    -0.19736847     5.10807181
H      -0.32224942     0.56624999     5.64474539
H      -0.23927277    -1.05586765     5.54704711
C      -0.37492744    -0.13640684     3.71637536
H       0.07338865    -0.96078293     3.15883515
H      -0.01747592     0.79074023     3.26467317
H      -1.46345159    -0.18423617     3.57219502
16 
# or11: geometry number 26. N3-C13 distance: 2.6 
C       0.68124957    -1.02576972     0.33889176
C      -0.09360261     0.22831315     0.69348539
N      -1.32314135     0.02534131     1.24711881
O       0.38617824     1.33790019     0.56712754
H      -1.85692512     0.82868463     1.53470700
H      -1.68569907    -0.89217438     1.43012519
H       1.16190302    -1.04575030    -0.63811068
H       1.46788478    -1.05302368     1.09485517
H       0.05214917    -1.90889120     0.45269399
N       0.05400134    -0.19431662     5.06148206
H      -0.34014025     0.56930184     5.59815564
H      -0.25716360    -1.05281580     5.50045736
C      -0.39281827    -0.13335499     3.66978561
H       0.05549782    -0.95773108     3.11224540
H      -0.03536675     0.79379208     3.21808342
H      -1.48134242    -0.18118432     3.52560527
16 
# or11: geometry number 27. N3-C13 distance: 2.55 
C       0.68124957    -1.02576972     0.33889176
C      -0.09360261     0.22831315     0.69348539
N      -1.32314135     0.02534131     1.24711881
O       0.38617824     1.33790019     0.56712754
H      -1.85692512     0.82868463     1.53470700
H      -1.68569907    -0.89217438     1.43012519
H       1.16190302    -1.04575030    -0.63811068
H       1.46788478    -1.05302368     1.09485517
H       0.05214917    -1.90889120     0.45269399
N       0.03611051    -0.19126477     5.01489232
H      -0.35803108     0.57235369     5.55156590
H      -0.27505443    -1.04976395     5.45386762
C      -0.41070910    -0.13030314     3.62319587
H       0.03760699    -0.95467923     3.06565566
H      -0.05325758     0.79684393     3.17149368
H      -1.49923325    -0.17813247     3.47901553
16 
# or11: geometry number 28. N3-C13 distance: 2.5 
C       0.68124957    -1.02576972     0.33889176
C      -0.09360261     0.22831315     0.69348539
N      -1.32314135     0.02534131     1.24711881
O       0.38617824     1.33790019     0.56712754
H      -1.85692512     0.82868463     1.53470700
H      -1.68569907    -0.89217438     1.43012519
H       1.16190302    -1.04575030    -0.63811068
H       1.46788478    -1.05302368     1.09485517
H       0.05214917    -1.90889120     0.45269399
N       0.01821968    -0.18821292     4.96830257
H      -0.37592191     0.57540554     5.50497615
H      -0.29294526    -1.04671210     5.40727787
C      -0.42859993    -0.12725129     3.57660612
H       0.01971616    -0.95162738     3.01906591
H      -0.07114841     0.79989578     3.12490393
H      -1.51712408    -0.17508062     3.43242578
16 
# or11: geometry number 29. N3-C13 distance: 2.45 
C       0.68124957    -1.02576972     0.33889176
C      -0.09360261     0.22831315     0.69348539
N      -1.32314135     0.02534131     1.24711881
O       0.38617824     1.33790019     0.56712754
H      -1.85692512     0.82868463     1.53470700
H      -1.68569907    -0.89217438     1.43012519
H       1.16190302    -1.04575030    -0.63811068
H       1.46788478    -1.05302368     1.09485517
H       0.05214917    -1.90889120     0.45269399
N       0.00032886    -0.18516107     4.92171283
H      -0.39381273     0.57845739     5.45838641
H      -0.31083608    -1.04366025     5.36068813
C      -0.44649075    -0.12419944     3.53001638
H       0.00182534    -0.94857553     2.97247617
H      -0.08903923     0.80294763     3.07831419
H      -1.53501490    -0.17202877     3.38583604
16 
# or11: geometry number 30. N3-C13 distance: 2.4 
C       0.68124957    -1.02576972     0.33889176
C      -0.09360261     0.22831315     0.69348539
N      -1.32314135     0.02534131     1.24711881
O       0.38617824     1.33790019     0.56712754
H      -1.85692512     0.82868463     1.53470700
H      -1.68569907    -0.89217438     1.43012519
H       1.16190302    -1.04575030    -0.63811068
H       1.46788478    -1.05302368     1.09485517
H       0.05214917    -1.90889120     0.45269399
N      -0.01756197    -0.18210921     4.87512308
H      -0.41170356     0.58150925     5.41179666
H      -0.32872691    -1.04060839     5.31409838
C      -0.46438158    -0.12114758     3.48342663
H      -0.01606549    -0.94552367     2.92588642
H      -0.10693006     0.80599949     3.03172444
H      -1.55290573    -0.16897691     3.33924629
