16 
# or13: geometry number 1. H6-N10 distance: 10 
C       0.54844841    -1.09974298     0.07055892
C      -0.17313165     0.22055371     0.25762915
N      -1.42695575     0.13774196     0.78728977
O       0.36474878     1.28571293     0.02641535
H      -1.92832496     0.99198626     0.96586231
H      -1.83991640    -0.73583564     1.05766021
H       1.05596641    -1.25099994    -0.88102269
H       1.31023887    -1.07860243     0.85174187
H      -0.12686912    -1.93460847     0.25915280
N      -6.26855089    -9.16463033     4.11422964
H      -5.62099560    -9.63035748     4.73892929
H      -6.27532586    -9.69419585     3.25048302
C      -7.60779559    -9.11432907     4.70081000
H      -8.28118372    -8.59742314     4.01466787
H      -7.57469358    -8.52979548     5.62202273
H      -8.05185772   -10.09155472     4.93702875
16 
# or13: geometry number 2. H6-N10 distance: 9 
C       0.54844841    -1.09974298     0.07055892
C      -0.17313165     0.22055371     0.25762915
N      -1.42695575     0.13774196     0.78728977
O       0.36474878     1.28571293     0.02641535
H      -1.92832496     0.99198626     0.96586231
H      -1.83991640    -0.73583564     1.05766021
H       1.05596641    -1.25099994    -0.88102269
H       1.31023887    -1.07860243     0.85174187
H      -0.12686912    -1.93460847     0.25915280
N      -5.82568744    -8.32175086     3.80857270
H      -5.17813215    -8.78747801     4.43327235
H      -5.83246241    -8.85131638     2.94482608
C      -7.16493214    -8.27144960     4.39515306
H      -7.83832027    -7.75454367     3.70901093
H      -7.13183013    -7.68691601     5.31636579
H      -7.60899427    -9.24867525     4.63137181
16 
# or13: geometry number 3. H6-N10 distance: 8 
C       0.54844841    -1.09974298     0.07055892
C      -0.17313165     0.22055371     0.25762915
N      -1.42695575     0.13774196     0.78728977
O       0.36474878     1.28571293     0.02641535
H      -1.92832496     0.99198626     0.96586231
H      -1.83991640    -0.73583564     1.05766021
H       1.05596641    -1.25099994    -0.88102269
H       1.31023887    -1.07860243     0.85174187
H      -0.12686912    -1.93460847     0.25915280
N      -5.38282399    -7.47887139     3.50291575
H      -4.73526870    -7.94459854     4.12761540
H      -5.38959896    -8.00843691     2.63916913
C      -6.72206869    -7.42857013     4.08949611
H      -7.39545682    -6.91166420     3.40335398
H      -6.68896668    -6.84403654     5.01070884
H      -7.16613082    -8.40579578     4.32571486
16 
# or13: geometry number 4. H6-N10 distance: 7 
C       0.54844841    -1.09974298     0.07055892
C      -0.17313165     0.22055371     0.25762915
N      -1.42695575     0.13774196     0.78728977
O       0.36474878     1.28571293     0.02641535
H      -1.92832496     0.99198626     0.96586231
H      -1.83991640    -0.73583564     1.05766021
H       1.05596641    -1.25099994    -0.88102269
H       1.31023887    -1.07860243     0.85174187
H      -0.12686912    -1.93460847     0.25915280
N      -4.93996054    -6.63599192     3.19725881
H      -4.29240525    -7.10171907     3.82195846
H      -4.94673551    -7.16555744     2.33351219
C      -6.27920524    -6.58569066     3.78383917
H      -6.95259337    -6.06878473     3.09769704
H      -6.24610323    -6.00115707     4.70505190
H      -6.72326737    -7.56291631     4.02005792
16 
# or13: geometry number 5. H6-N10 distance: 6 
C       0.54844841    -1.09974298     0.07055892
C      -0.17313165     0.22055371     0.25762915
N      -1.42695575     0.13774196     0.78728977
O       0.36474878     1.28571293     0.02641535
H      -1.92832496     0.99198626     0.96586231
H      -1.83991640    -0.73583564     1.05766021
H       1.05596641    -1.25099994    -0.88102269
H       1.31023887    -1.07860243     0.85174187
H      -0.12686912    -1.93460847     0.25915280
N      -4.49709709    -5.79311245     2.89160187
H      -3.84954180    -6.25883960     3.51630152
H      -4.50387206    -6.32267797     2.02785525
C      -5.83634179    -5.74281119     3.47818223
H      -6.50972992    -5.22590526     2.79204010
H      -5.80323978    -5.15827760     4.39939496
H      -6.28040392    -6.72003684     3.71440098
16 
# or13: geometry number 6. H6-N10 distance: 5 
C       0.54844841    -1.09974298     0.07055892
C      -0.17313165     0.22055371     0.25762915
N      -1.42695575     0.13774196     0.78728977
O       0.36474878     1.28571293     0.02641535
H      -1.92832496     0.99198626     0.96586231
H      -1.83991640    -0.73583564     1.05766021
H       1.05596641    -1.25099994    -0.88102269
H       1.31023887    -1.07860243     0.85174187
H      -0.12686912    -1.93460847     0.25915280
N      -4.05423364    -4.95023298     2.58594492
H      -3.40667835    -5.41596013     3.21064457
H      -4.06100861    -5.47979850     1.72219830
C      -5.39347834    -4.89993172     3.17252528
H      -6.06686647    -4.38302579     2.48638315
H      -5.36037633    -4.31539813     4.09373801
H      -5.83754047    -5.87715737     3.40874403
16 
# or13: geometry number 7. H6-N10 distance: 4.5 
C       0.54844841    -1.09974298     0.07055892
C      -0.17313165     0.22055371     0.25762915
N      -1.42695575     0.13774196     0.78728977
O       0.36474878     1.28571293     0.02641535
H      -1.92832496     0.99198626     0.96586231
H      -1.83991640    -0.73583564     1.05766021
H       1.05596641    -1.25099994    -0.88102269
H       1.31023887    -1.07860243     0.85174187
H      -0.12686912    -1.93460847     0.25915280
N      -3.83280192    -4.52879325     2.43311645
H      -3.18524663    -4.99452040     3.05781610
H      -3.83957689    -5.05835877     1.56936983
C      -5.17204662    -4.47849199     3.01969681
H      -5.84543475    -3.96158606     2.33355468
H      -5.13894461    -3.89395840     3.94090954
H      -5.61610875    -5.45571764     3.25591556
16 
# or13: geometry number 8. H6-N10 distance: 4 
C       0.54844841    -1.09974298     0.07055892
C      -0.17313165     0.22055371     0.25762915
N      -1.42695575     0.13774196     0.78728977
O       0.36474878     1.28571293     0.02641535
H      -1.92832496     0.99198626     0.96586231
H      -1.83991640    -0.73583564     1.05766021
H       1.05596641    -1.25099994    -0.88102269
H       1.31023887    -1.07860243     0.85174187
H      -0.12686912    -1.93460847     0.25915280
N      -3.61137020    -4.10735352     2.28028798
H      -2.96381491    -4.57308067     2.90498763
H      -3.61814517    -4.63691904     1.41654136
C      -4.95061490    -4.05705226     2.86686834
H      -5.62400303    -3.54014633     2.18072621
H      -4.91751289    -3.47251867     3.78808107
H      -5.39467703    -5.03427791     3.10308709
16 
# or13: geometry number 9. H6-N10 distance: 3.7 
C       0.54844841    -1.09974298     0.07055892
C      -0.17313165     0.22055371     0.25762915
N      -1.42695575     0.13774196     0.78728977
O       0.36474878     1.28571293     0.02641535
H      -1.92832496     0.99198626     0.96586231
H      -1.83991640    -0.73583564     1.05766021
H       1.05596641    -1.25099994    -0.88102269
H       1.31023887    -1.07860243     0.85174187
H      -0.12686912    -1.93460847     0.25915280
N      -3.47851116    -3.85448967     2.18859090
H      -2.83095587    -4.32021682     2.81329055
H      -3.48528613    -4.38405519     1.32484428
C      -4.81775586    -3.80418841     2.77517126
H      -5.49114399    -3.28728248     2.08902913
H      -4.78465385    -3.21965482     3.69638399
H      -5.26181799    -4.78141406     3.01139001
16 
# or13: geometry number 10. H6-N10 distance: 3.4 
C       0.54844841    -1.09974298     0.07055892
C      -0.17313165     0.22055371     0.25762915
N      -1.42695575     0.13774196     0.78728977
O       0.36474878     1.28571293     0.02641535
H      -1.92832496     0.99198626     0.96586231
H      -1.83991640    -0.73583564     1.05766021
H       1.05596641    -1.25099994    -0.88102269
H       1.31023887    -1.07860243     0.85174187
H      -0.12686912    -1.93460847     0.25915280
N      -3.34565213    -3.60162583     2.09689382
H      -2.69809684    -4.06735298     2.72159347
H      -3.35242710    -4.13119135     1.23314720
C      -4.68489683    -3.55132457     2.68347418
H      -5.35828496    -3.03441864     1.99733205
H      -4.65179482    -2.96679098     3.60468691
H      -5.12895896    -4.52855022     2.91969293
16 
# or13: geometry number 11. H6-N10 distance: 3.1 
C       0.54844841    -1.09974298     0.07055892
C      -0.17313165     0.22055371     0.25762915
N      -1.42695575     0.13774196     0.78728977
O       0.36474878     1.28571293     0.02641535
H      -1.92832496     0.99198626     0.96586231
H      -1.83991640    -0.73583564     1.05766021
H       1.05596641    -1.25099994    -0.88102269
H       1.31023887    -1.07860243     0.85174187
H      -0.12686912    -1.93460847     0.25915280
N      -3.21279309    -3.34876199     2.00519673
H      -2.56523780    -3.81448914     2.62989638
H      -3.21956806    -3.87832751     1.14145011
C      -4.55203779    -3.29846073     2.59177709
H      -5.22542592    -2.78155480     1.90563496
H      -4.51893578    -2.71392714     3.51298982
H      -4.99609992    -4.27568638     2.82799584
16 
# or13: geometry number 12. H6-N10 distance: 2.9 
C       0.54844841    -1.09974298     0.07055892
C      -0.17313165     0.22055371     0.25762915
N      -1.42695575     0.13774196     0.78728977
O       0.36474878     1.28571293     0.02641535
H      -1.92832496     0.99198626     0.96586231
H      -1.83991640    -0.73583564     1.05766021
H       1.05596641    -1.25099994    -0.88102269
H       1.31023887    -1.07860243     0.85174187
H      -0.12686912    -1.93460847     0.25915280
N      -3.12422040    -3.18018610     1.94406534
H      -2.47666511    -3.64591325     2.56876499
H      -3.13099537    -3.70975162     1.08031872
C      -4.46346510    -3.12988484     2.53064570
H      -5.13685323    -2.61297891     1.84450357
H      -4.43036309    -2.54535125     3.45185843
H      -4.90752723    -4.10711049     2.76686445
16 
# or13: geometry number 13. H6-N10 distance: 2.7 
C       0.54844841    -1.09974298     0.07055892
C      -0.17313165     0.22055371     0.25762915
N      -1.42695575     0.13774196     0.78728977
O       0.36474878     1.28571293     0.02641535
H      -1.92832496     0.99198626     0.96586231
H      -1.83991640    -0.73583564     1.05766021
H       1.05596641    -1.25099994    -0.88102269
H       1.31023887    -1.07860243     0.85174187
H      -0.12686912    -1.93460847     0.25915280
N      -3.03564771    -3.01161021     1.88293396
H      -2.38809242    -3.47733736     2.50763361
H      -3.04242268    -3.54117573     1.01918734
C      -4.37489241    -2.96130895     2.46951432
H      -5.04828054    -2.44440302     1.78337219
H      -4.34179040    -2.37677536     3.39072705
H      -4.81895454    -3.93853460     2.70573307
16 
# or13: geometry number 14. H6-N10 distance: 2.5 
C       0.54844841    -1.09974298     0.07055892
C      -0.17313165     0.22055371     0.25762915
N      -1.42695575     0.13774196     0.78728977
O       0.36474878     1.28571293     0.02641535
H      -1.92832496     0.99198626     0.96586231
H      -1.83991640    -0.73583564     1.05766021
H       1.05596641    -1.25099994    -0.88102269
H       1.31023887    -1.07860243     0.85174187
H      -0.12686912    -1.93460847     0.25915280
N      -2.94707502    -2.84303431     1.82180257
H      -2.29951973    -3.30876146     2.44650222
H      -2.95384999    -3.37259983     0.95805595
C      -4.28631972    -2.79273305     2.40838293
H      -4.95970785    -2.27582712     1.72224080
H      -4.25321771    -2.20819946     3.32959566
H      -4.73038185    -3.76995870     2.64460168
16 
# or13: geometry number 15. H6-N10 distance: 2.4 
C       0.54844841    -1.09974298     0.07055892
C      -0.17313165     0.22055371     0.25762915
N      -1.42695575     0.13774196     0.78728977
O       0.36474878     1.28571293     0.02641535
H      -1.92832496     0.99198626     0.96586231
H      -1.83991640    -0.73583564     1.05766021
H       1.05596641    -1.25099994    -0.88102269
H       1.31023887    -1.07860243     0.85174187
H      -0.12686912    -1.93460847     0.25915280
N      -2.90278868    -2.75874637     1.79123687
H      -2.25523339    -3.22447352     2.41593652
H      -2.90956365    -3.28831189     0.92749025
C      -4.24203338    -2.70844511     2.37781723
H      -4.91542151    -2.19153918     1.69167510
H      -4.20893137    -2.12391152     3.29902996
H      -4.68609551    -3.68567076     2.61403598
16 
# or13: geometry number 16. H6-N10 distance: 2.3 
C       0.54844841    -1.09974298     0.07055892
C      -0.17313165     0.22055371     0.25762915
N      -1.42695575     0.13774196     0.78728977
O       0.36474878     1.28571293     0.02641535
H      -1.92832496     0.99198626     0.96586231
H      -1.83991640    -0.73583564     1.05766021
H       1.05596641    -1.25099994    -0.88102269
H       1.31023887    -1.07860243     0.85174187
H      -0.12686912    -1.93460847     0.25915280
N      -2.85850233    -2.67445842     1.76067118
H      -2.21094704    -3.14018557     2.38537083
H      -2.86527730    -3.20402394     0.89692456
C      -4.19774703    -2.62415716     2.34725154
H      -4.87113516    -2.10725123     1.66110941
H      -4.16464502    -2.03962357     3.26846427
H      -4.64180916    -3.60138281     2.58347029
16 
# or13: geometry number 17. H6-N10 distance: 2.2 
C       0.54844841    -1.09974298     0.07055892
C      -0.17313165     0.22055371     0.25762915
N      -1.42695575     0.13774196     0.78728977
O       0.36474878     1.28571293     0.02641535
H      -1.92832496     0.99198626     0.96586231
H      -1.83991640    -0.73583564     1.05766021
H       1.05596641    -1.25099994    -0.88102269
H       1.31023887    -1.07860243     0.85174187
H      -0.12686912    -1.93460847     0.25915280
N      -2.81421599    -2.59017047     1.73010548
H      -2.16666070    -3.05589762     2.35480513
H      -2.82099096    -3.11973599     0.86635886
C      -4.15346069    -2.53986921     2.31668584
H      -4.82684882    -2.02296328     1.63054371
H      -4.12035868    -1.95533562     3.23789857
H      -4.59752282    -3.51709486     2.55290459
16 
# or13: geometry number 18. H6-N10 distance: 2.1 
C       0.54844841    -1.09974298     0.07055892
C      -0.17313165     0.22055371     0.25762915
N      -1.42695575     0.13774196     0.78728977
O       0.36474878     1.28571293     0.02641535
H      -1.92832496     0.99198626     0.96586231
H      -1.83991640    -0.73583564     1.05766021
H       1.05596641    -1.25099994    -0.88102269
H       1.31023887    -1.07860243     0.85174187
H      -0.12686912    -1.93460847     0.25915280
N      -2.76992964    -2.50588252     1.69953979
H      -2.12237435    -2.97160967     2.32423944
H      -2.77670461    -3.03544804     0.83579317
C      -4.10917434    -2.45558126     2.28612015
H      -4.78256247    -1.93867533     1.59997802
H      -4.07607233    -1.87104767     3.20733288
H      -4.55323647    -3.43280691     2.52233890
16 
# or13: geometry number 19. H6-N10 distance: 2.0 
C       0.54844841    -1.09974298     0.07055892
C      -0.17313165     0.22055371     0.25762915
N      -1.42695575     0.13774196     0.78728977
O       0.36474878     1.28571293     0.02641535
H      -1.92832496     0.99198626     0.96586231
H      -1.83991640    -0.73583564     1.05766021
H       1.05596641    -1.25099994    -0.88102269
H       1.31023887    -1.07860243     0.85174187
H      -0.12686912    -1.93460847     0.25915280
N      -2.72564330    -2.42159458     1.66897410
H      -2.07808801    -2.88732173     2.29367375
H      -2.73241827    -2.95116010     0.80522748
C      -4.06488800    -2.37129332     2.25555446
H      -4.73827613    -1.85438739     1.56941233
H      -4.03178599    -1.78675973     3.17676719
H      -4.50895013    -3.34851897     2.49177321
16 
# or13: geometry number 20. H6-N10 distance: 1.9 
C       0.54844841    -1.09974298     0.07055892
C      -0.17313165     0.22055371     0.25762915
N      -1.42695575     0.13774196     0.78728977
O       0.36474878     1.28571293     0.02641535
H      -1.92832496     0.99198626     0.96586231
H      -1.83991640    -0.73583564     1.05766021
H       1.05596641    -1.25099994    -0.88102269
H       1.31023887    -1.07860243     0.85174187
H      -0.12686912    -1.93460847     0.25915280
N      -2.68135695    -2.33730663     1.63840840
H      -2.03380166    -2.80303378     2.26310805
H      -2.68813192    -2.86687215     0.77466178
C      -4.02060165    -2.28700537     2.22498876
H      -4.69398978    -1.77009944     1.53884663
H      -3.98749964    -1.70247178     3.14620149
H      -4.46466378    -3.26423102     2.46120751
16 
# or13: geometry number 21. H6-N10 distance: 1.8 
C       0.54844841    -1.09974298     0.07055892
C      -0.17313165     0.22055371     0.25762915
N      -1.42695575     0.13774196     0.78728977
O       0.36474878     1.28571293     0.02641535
H      -1.92832496     0.99198626     0.96586231
H      -1.83991640    -0.73583564     1.05766021
H       1.05596641    -1.25099994    -0.88102269
H       1.31023887    -1.07860243     0.85174187
H      -0.12686912    -1.93460847     0.25915280
N      -2.63707061    -2.25301868     1.60784271
H      -1.98951532    -2.71874583     2.23254236
H      -2.64384558    -2.78258420     0.74409609
C      -3.97631531    -2.20271742     2.19442307
H      -4.64970344    -1.68581149     1.50828094
H      -3.94321330    -1.61818383     3.11563580
H      -4.42037744    -3.17994307     2.43064182
16 
# or13: geometry number 22. H6-N10 distance: 1.7 
C       0.54844841    -1.09974298     0.07055892
C      -0.17313165     0.22055371     0.25762915
N      -1.42695575     0.13774196     0.78728977
O       0.36474878     1.28571293     0.02641535
H      -1.92832496     0.99198626     0.96586231
H      -1.83991640    -0.73583564     1.05766021
H       1.05596641    -1.25099994    -0.88102269
H       1.31023887    -1.07860243     0.85174187
H      -0.12686912    -1.93460847     0.25915280
N      -2.59278426    -2.16873074     1.57727701
H      -1.94522897    -2.63445789     2.20197666
H      -2.59955923    -2.69829626     0.71353039
C      -3.93202896    -2.11842948     2.16385737
H      -4.60541709    -1.60152355     1.47771524
H      -3.89892695    -1.53389589     3.08507010
H      -4.37609109    -3.09565513     2.40007612
16 
# or13: geometry number 23. H6-N10 distance: 1.6 
C       0.54844841    -1.09974298     0.07055892
C      -0.17313165     0.22055371     0.25762915
N      -1.42695575     0.13774196     0.78728977
O       0.36474878     1.28571293     0.02641535
H      -1.92832496     0.99198626     0.96586231
H      -1.83991640    -0.73583564     1.05766021
H       1.05596641    -1.25099994    -0.88102269
H       1.31023887    -1.07860243     0.85174187
H      -0.12686912    -1.93460847     0.25915280
N      -2.54849792    -2.08444279     1.54671132
H      -1.90094263    -2.55016994     2.17141097
H      -2.55527289    -2.61400831     0.68296470
C      -3.88774262    -2.03414153     2.13329168
H      -4.56113075    -1.51723560     1.44714955
H      -3.85464061    -1.44960794     3.05450441
H      -4.33180475    -3.01136718     2.36951043
16 
# or13: geometry number 24. H6-N10 distance: 1.5 
C       0.54844841    -1.09974298     0.07055892
C      -0.17313165     0.22055371     0.25762915
N      -1.42695575     0.13774196     0.78728977
O       0.36474878     1.28571293     0.02641535
H      -1.92832496     0.99198626     0.96586231
H      -1.83991640    -0.73583564     1.05766021
H       1.05596641    -1.25099994    -0.88102269
H       1.31023887    -1.07860243     0.85174187
H      -0.12686912    -1.93460847     0.25915280
N      -2.50421157    -2.00015484     1.51614562
H      -1.85665628    -2.46588199     2.14084527
H      -2.51098654    -2.52972036     0.65239900
C      -3.84345627    -1.94985358     2.10272598
H      -4.51684440    -1.43294765     1.41658385
H      -3.81035426    -1.36531999     3.02393871
H      -4.28751840    -2.92707923     2.33894473
16 
# or13: geometry number 25. H6-N10 distance: 1.4 
C       0.54844841    -1.09974298     0.07055892
C      -0.17313165     0.22055371     0.25762915
N      -1.42695575     0.13774196     0.78728977
O       0.36474878     1.28571293     0.02641535
H      -1.92832496     0.99198626     0.96586231
H      -1.83991640    -0.73583564     1.05766021
H       1.05596641    -1.25099994    -0.88102269
H       1.31023887    -1.07860243     0.85174187
H      -0.12686912    -1.93460847     0.25915280
N      -2.45992523    -1.91586690     1.48557993
H      -1.81236994    -2.38159405     2.11027958
H      -2.46670020    -2.44543242     0.62183331
C      -3.79916993    -1.86556564     2.07216029
H      -4.47255806    -1.34865971     1.38601816
H      -3.76606792    -1.28103205     2.99337302
H      -4.24323206    -2.84279129     2.30837904
16 
# or13: geometry number 26. H6-N10 distance: 1.35 
C       0.54844841    -1.09974298     0.07055892
C      -0.17313165     0.22055371     0.25762915
N      -1.42695575     0.13774196     0.78728977
O       0.36474878     1.28571293     0.02641535
H      -1.92832496     0.99198626     0.96586231
H      -1.83991640    -0.73583564     1.05766021
H       1.05596641    -1.25099994    -0.88102269
H       1.31023887    -1.07860243     0.85174187
H      -0.12686912    -1.93460847     0.25915280
N      -2.43778206    -1.87372292     1.47029708
H      -1.79022677    -2.33945007     2.09499673
H      -2.44455703    -2.40328844     0.60655046
C      -3.77702676    -1.82342166     2.05687744
H      -4.45041489    -1.30651573     1.37073531
H      -3.74392475    -1.23888807     2.97809017
H      -4.22108889    -2.80064731     2.29309619
16 
# or13: geometry number 27. H6-N10 distance: 1.3 
C       0.54844841    -1.09974298     0.07055892
C      -0.17313165     0.22055371     0.25762915
N      -1.42695575     0.13774196     0.78728977
O       0.36474878     1.28571293     0.02641535
H      -1.92832496     0.99198626     0.96586231
H      -1.83991640    -0.73583564     1.05766021
H       1.05596641    -1.25099994    -0.88102269
H       1.31023887    -1.07860243     0.85174187
H      -0.12686912    -1.93460847     0.25915280
N      -2.41563888    -1.83157895     1.45501424
H      -1.76808359    -2.29730610     2.07971389
H      -2.42241385    -2.36114447     0.59126762
C      -3.75488358    -1.78127769     2.04159460
H      -4.42827171    -1.26437176     1.35545247
H      -3.72178157    -1.19674410     2.96280733
H      -4.19894571    -2.75850334     2.27781335
16 
# or13: geometry number 28. H6-N10 distance: 1.25 
C       0.54844841    -1.09974298     0.07055892
C      -0.17313165     0.22055371     0.25762915
N      -1.42695575     0.13774196     0.78728977
O       0.36474878     1.28571293     0.02641535
H      -1.92832496     0.99198626     0.96586231
H      -1.83991640    -0.73583564     1.05766021
H       1.05596641    -1.25099994    -0.88102269
H       1.31023887    -1.07860243     0.85174187
H      -0.12686912    -1.93460847     0.25915280
N      -2.39349571    -1.78943498     1.43973139
H      -1.74594042    -2.25516213     2.06443104
H      -2.40027068    -2.31900050     0.57598477
C      -3.73274041    -1.73913372     2.02631175
H      -4.40612854    -1.22222779     1.34016962
H      -3.69963840    -1.15460013     2.94752448
H      -4.17680254    -2.71635937     2.26253050
16 
# or13: geometry number 29. H6-N10 distance: 1.2 
C       0.54844841    -1.09974298     0.07055892
C      -0.17313165     0.22055371     0.25762915
N      -1.42695575     0.13774196     0.78728977
O       0.36474878     1.28571293     0.02641535
H      -1.92832496     0.99198626     0.96586231
H      -1.83991640    -0.73583564     1.05766021
H       1.05596641    -1.25099994    -0.88102269
H       1.31023887    -1.07860243     0.85174187
H      -0.12686912    -1.93460847     0.25915280
N      -2.37135254    -1.74729100     1.42444854
H      -1.72379725    -2.21301815     2.04914819
H      -2.37812751    -2.27685652     0.56070192
C      -3.71059724    -1.69698974     2.01102890
H      -4.38398537    -1.18008381     1.32488677
H      -3.67749523    -1.11245615     2.93224163
H      -4.15465937    -2.67421539     2.24724765
