16 
# or14: geometry number 1. H6-H11 distance: 10 
C       0.72718532    -0.67308137    -0.05823775
C       0.00560526     0.64721531     0.12883248
N      -1.24821884     0.56440356     0.65849309
O       0.54348570     1.71237454    -0.10238132
H      -1.74958805     1.41864787     0.83706564
H      -1.66117949    -0.30917404     0.92886353
H       1.23470332    -0.82433833    -1.00981936
H       1.48897578    -0.65194082     0.72294520
H       0.05186779    -1.50794686     0.13035612
N      -5.88848540   -10.15334260     3.47863145
H      -5.52346176    -9.23486811     3.25582746
H      -5.09023996   -10.76731332     3.58993259
C      -6.68335462   -10.11045409     4.70603790
H      -7.07440470   -11.10773647     4.91566144
H      -7.54119809    -9.45251825     4.55559476
H      -6.14531645    -9.76438438     5.59974430
16 
# or14: geometry number 2. H6-H11 distance: 9 
C       0.72718532    -0.67308137    -0.05823775
C       0.00560526     0.64721531     0.12883248
N      -1.24821884     0.56440356     0.65849309
O       0.54348570     1.71237454    -0.10238132
H      -1.74958805     1.41864787     0.83706564
H      -1.66117949    -0.30917404     0.92886353
H       1.23470332    -0.82433833    -1.00981936
H       1.48897578    -0.65194082     0.72294520
H       0.05186779    -1.50794686     0.13035612
N      -5.50225717    -9.26077319     3.24593506
H      -5.13723353    -8.34229870     3.02313107
H      -4.70401173    -9.87474391     3.35723620
C      -6.29712639    -9.21788468     4.47334151
H      -6.68817647   -10.21516706     4.68296505
H      -7.15496986    -8.55994884     4.32289837
H      -5.75908822    -8.87181497     5.36704791
16 
# or14: geometry number 3. H6-H11 distance: 8 
C       0.72718532    -0.67308137    -0.05823775
C       0.00560526     0.64721531     0.12883248
N      -1.24821884     0.56440356     0.65849309
O       0.54348570     1.71237454    -0.10238132
H      -1.74958805     1.41864787     0.83706564
H      -1.66117949    -0.30917404     0.92886353
H       1.23470332    -0.82433833    -1.00981936
H       1.48897578    -0.65194082     0.72294520
H       0.05186779    -1.50794686     0.13035612
N      -5.11602894    -8.36820378     3.01323867
H      -4.75100530    -7.44972929     2.79043468
H      -4.31778350    -8.98217450     3.12453981
C      -5.91089816    -8.32531527     4.24064512
H      -6.30194824    -9.32259765     4.45026866
H      -6.76874163    -7.66737943     4.09020198
H      -5.37285999    -7.97924556     5.13435152
16 
# or14: geometry number 4. H6-H11 distance: 7 
C       0.72718532    -0.67308137    -0.05823775
C       0.00560526     0.64721531     0.12883248
N      -1.24821884     0.56440356     0.65849309
O       0.54348570     1.71237454    -0.10238132
H      -1.74958805     1.41864787     0.83706564
H      -1.66117949    -0.30917404     0.92886353
H       1.23470332    -0.82433833    -1.00981936
H       1.48897578    -0.65194082     0.72294520
H       0.05186779    -1.50794686     0.13035612
N      -4.72980072    -7.47563438     2.78054227
H      -4.36477708    -6.55715989     2.55773828
H      -3.93155528    -8.08960510     2.89184341
C      -5.52466994    -7.43274587     4.00794872
H      -5.91572002    -8.43002825     4.21757226
H      -6.38251341    -6.77481003     3.85750558
H      -4.98663177    -7.08667616     4.90165512
16 
# or14: geometry number 5. H6-H11 distance: 6 
C       0.72718532    -0.67308137    -0.05823775
C       0.00560526     0.64721531     0.12883248
N      -1.24821884     0.56440356     0.65849309
O       0.54348570     1.71237454    -0.10238132
H      -1.74958805     1.41864787     0.83706564
H      -1.66117949    -0.30917404     0.92886353
H       1.23470332    -0.82433833    -1.00981936
H       1.48897578    -0.65194082     0.72294520
H       0.05186779    -1.50794686     0.13035612
N      -4.34357249    -6.58306497     2.54784588
H      -3.97854885    -5.66459048     2.32504189
H      -3.54532705    -7.19703569     2.65914702
C      -5.13844171    -6.54017646     3.77525233
H      -5.52949179    -7.53745884     3.98487587
H      -5.99628518    -5.88224062     3.62480919
H      -4.60040354    -6.19410675     4.66895873
16 
# or14: geometry number 6. H6-H11 distance: 5 
C       0.72718532    -0.67308137    -0.05823775
C       0.00560526     0.64721531     0.12883248
N      -1.24821884     0.56440356     0.65849309
O       0.54348570     1.71237454    -0.10238132
H      -1.74958805     1.41864787     0.83706564
H      -1.66117949    -0.30917404     0.92886353
H       1.23470332    -0.82433833    -1.00981936
H       1.48897578    -0.65194082     0.72294520
H       0.05186779    -1.50794686     0.13035612
N      -3.95734426    -5.69049556     2.31514949
H      -3.59232062    -4.77202107     2.09234550
H      -3.15909882    -6.30446628     2.42645063
C      -4.75221348    -5.64760705     3.54255594
H      -5.14326356    -6.64488943     3.75217948
H      -5.61005695    -4.98967121     3.39211280
H      -4.21417531    -5.30153734     4.43626234
16 
# or14: geometry number 7. H6-H11 distance: 4.5 
C       0.72718532    -0.67308137    -0.05823775
C       0.00560526     0.64721531     0.12883248
N      -1.24821884     0.56440356     0.65849309
O       0.54348570     1.71237454    -0.10238132
H      -1.74958805     1.41864787     0.83706564
H      -1.66117949    -0.30917404     0.92886353
H       1.23470332    -0.82433833    -1.00981936
H       1.48897578    -0.65194082     0.72294520
H       0.05186779    -1.50794686     0.13035612
N      -3.76423015    -5.24421086     2.19880129
H      -3.39920651    -4.32573637     1.97599730
H      -2.96598471    -5.85818158     2.31010243
C      -4.55909937    -5.20132235     3.42620774
H      -4.95014945    -6.19860473     3.63583128
H      -5.41694284    -4.54338651     3.27576460
H      -4.02106120    -4.85525264     4.31991414
16 
# or14: geometry number 8. H6-H11 distance: 4 
C       0.72718532    -0.67308137    -0.05823775
C       0.00560526     0.64721531     0.12883248
N      -1.24821884     0.56440356     0.65849309
O       0.54348570     1.71237454    -0.10238132
H      -1.74958805     1.41864787     0.83706564
H      -1.66117949    -0.30917404     0.92886353
H       1.23470332    -0.82433833    -1.00981936
H       1.48897578    -0.65194082     0.72294520
H       0.05186779    -1.50794686     0.13035612
N      -3.57111604    -4.79792616     2.08245309
H      -3.20609240    -3.87945167     1.85964910
H      -2.77287060    -5.41189688     2.19375423
C      -4.36598526    -4.75503765     3.30985954
H      -4.75703534    -5.75232003     3.51948308
H      -5.22382873    -4.09710181     3.15941640
H      -3.82794709    -4.40896794     4.20356594
16 
# or14: geometry number 9. H6-H11 distance: 3.7 
C       0.72718532    -0.67308137    -0.05823775
C       0.00560526     0.64721531     0.12883248
N      -1.24821884     0.56440356     0.65849309
O       0.54348570     1.71237454    -0.10238132
H      -1.74958805     1.41864787     0.83706564
H      -1.66117949    -0.30917404     0.92886353
H       1.23470332    -0.82433833    -1.00981936
H       1.48897578    -0.65194082     0.72294520
H       0.05186779    -1.50794686     0.13035612
N      -3.45524757    -4.53015533     2.01264418
H      -3.09022393    -3.61168084     1.78984019
H      -2.65700213    -5.14412605     2.12394532
C      -4.25011679    -4.48726682     3.24005063
H      -4.64116687    -5.48454920     3.44967417
H      -5.10796026    -3.82933098     3.08960749
H      -3.71207862    -4.14119711     4.13375703
16 
# or14: geometry number 10. H6-H11 distance: 3.4 
C       0.72718532    -0.67308137    -0.05823775
C       0.00560526     0.64721531     0.12883248
N      -1.24821884     0.56440356     0.65849309
O       0.54348570     1.71237454    -0.10238132
H      -1.74958805     1.41864787     0.83706564
H      -1.66117949    -0.30917404     0.92886353
H       1.23470332    -0.82433833    -1.00981936
H       1.48897578    -0.65194082     0.72294520
H       0.05186779    -1.50794686     0.13035612
N      -3.33937910    -4.26238451     1.94283526
H      -2.97435546    -3.34391002     1.72003127
H      -2.54113366    -4.87635523     2.05413640
C      -4.13424832    -4.21949600     3.17024171
H      -4.52529840    -5.21677838     3.37986525
H      -4.99209179    -3.56156016     3.01979857
H      -3.59621015    -3.87342629     4.06394811
16 
# or14: geometry number 11. H6-H11 distance: 3.1 
C       0.72718532    -0.67308137    -0.05823775
C       0.00560526     0.64721531     0.12883248
N      -1.24821884     0.56440356     0.65849309
O       0.54348570     1.71237454    -0.10238132
H      -1.74958805     1.41864787     0.83706564
H      -1.66117949    -0.30917404     0.92886353
H       1.23470332    -0.82433833    -1.00981936
H       1.48897578    -0.65194082     0.72294520
H       0.05186779    -1.50794686     0.13035612
N      -3.22351063    -3.99461369     1.87302634
H      -2.85848699    -3.07613920     1.65022235
H      -2.42526519    -4.60858441     1.98432748
C      -4.01837985    -3.95172518     3.10043279
H      -4.40942993    -4.94900756     3.31005633
H      -4.87622332    -3.29378934     2.94998965
H      -3.48034168    -3.60565547     3.99413919
16 
# or14: geometry number 12. H6-H11 distance: 2.9 
C       0.72718532    -0.67308137    -0.05823775
C       0.00560526     0.64721531     0.12883248
N      -1.24821884     0.56440356     0.65849309
O       0.54348570     1.71237454    -0.10238132
H      -1.74958805     1.41864787     0.83706564
H      -1.66117949    -0.30917404     0.92886353
H       1.23470332    -0.82433833    -1.00981936
H       1.48897578    -0.65194082     0.72294520
H       0.05186779    -1.50794686     0.13035612
N      -3.14626499    -3.81609981     1.82648706
H      -2.78124135    -2.89762532     1.60368307
H      -2.34801955    -4.43007053     1.93778820
C      -3.94113421    -3.77321130     3.05389351
H      -4.33218429    -4.77049368     3.26351705
H      -4.79897768    -3.11527546     2.90345037
H      -3.40309604    -3.42714159     3.94759991
16 
# or14: geometry number 13. H6-H11 distance: 2.7 
C       0.72718532    -0.67308137    -0.05823775
C       0.00560526     0.64721531     0.12883248
N      -1.24821884     0.56440356     0.65849309
O       0.54348570     1.71237454    -0.10238132
H      -1.74958805     1.41864787     0.83706564
H      -1.66117949    -0.30917404     0.92886353
H       1.23470332    -0.82433833    -1.00981936
H       1.48897578    -0.65194082     0.72294520
H       0.05186779    -1.50794686     0.13035612
N      -3.06901934    -3.63758593     1.77994778
H      -2.70399570    -2.71911144     1.55714379
H      -2.27077390    -4.25155665     1.89124892
C      -3.86388856    -3.59469742     3.00735423
H      -4.25493864    -4.59197980     3.21697777
H      -4.72173203    -2.93676158     2.85691109
H      -3.32585039    -3.24862771     3.90106063
16 
# or14: geometry number 14. H6-H11 distance: 2.5 
C       0.72718532    -0.67308137    -0.05823775
C       0.00560526     0.64721531     0.12883248
N      -1.24821884     0.56440356     0.65849309
O       0.54348570     1.71237454    -0.10238132
H      -1.74958805     1.41864787     0.83706564
H      -1.66117949    -0.30917404     0.92886353
H       1.23470332    -0.82433833    -1.00981936
H       1.48897578    -0.65194082     0.72294520
H       0.05186779    -1.50794686     0.13035612
N      -2.99177370    -3.45907205     1.73340850
H      -2.62675006    -2.54059756     1.51060451
H      -2.19352826    -4.07304277     1.84470964
C      -3.78664292    -3.41618354     2.96081495
H      -4.17769300    -4.41346592     3.17043849
H      -4.64448639    -2.75824770     2.81037181
H      -3.24860475    -3.07011383     3.85452135
16 
# or14: geometry number 15. H6-H11 distance: 2.4 
C       0.72718532    -0.67308137    -0.05823775
C       0.00560526     0.64721531     0.12883248
N      -1.24821884     0.56440356     0.65849309
O       0.54348570     1.71237454    -0.10238132
H      -1.74958805     1.41864787     0.83706564
H      -1.66117949    -0.30917404     0.92886353
H       1.23470332    -0.82433833    -1.00981936
H       1.48897578    -0.65194082     0.72294520
H       0.05186779    -1.50794686     0.13035612
N      -2.95315087    -3.36981511     1.71013886
H      -2.58812723    -2.45134062     1.48733487
H      -2.15490543    -3.98378583     1.82144000
C      -3.74802009    -3.32692660     2.93754531
H      -4.13907017    -4.32420898     3.14716885
H      -4.60586356    -2.66899076     2.78710217
H      -3.20998192    -2.98085689     3.83125171
16 
# or14: geometry number 16. H6-H11 distance: 2.3 
C       0.72718532    -0.67308137    -0.05823775
C       0.00560526     0.64721531     0.12883248
N      -1.24821884     0.56440356     0.65849309
O       0.54348570     1.71237454    -0.10238132
H      -1.74958805     1.41864787     0.83706564
H      -1.66117949    -0.30917404     0.92886353
H       1.23470332    -0.82433833    -1.00981936
H       1.48897578    -0.65194082     0.72294520
H       0.05186779    -1.50794686     0.13035612
N      -2.91452805    -3.28055817     1.68686922
H      -2.54950441    -2.36208368     1.46406523
H      -2.11628261    -3.89452889     1.79817036
C      -3.70939727    -3.23766966     2.91427567
H      -4.10044735    -4.23495204     3.12389921
H      -4.56724074    -2.57973382     2.76383253
H      -3.17135910    -2.89159995     3.80798207
16 
# or14: geometry number 17. H6-H11 distance: 2.2 
C       0.72718532    -0.67308137    -0.05823775
C       0.00560526     0.64721531     0.12883248
N      -1.24821884     0.56440356     0.65849309
O       0.54348570     1.71237454    -0.10238132
H      -1.74958805     1.41864787     0.83706564
H      -1.66117949    -0.30917404     0.92886353
H       1.23470332    -0.82433833    -1.00981936
H       1.48897578    -0.65194082     0.72294520
H       0.05186779    -1.50794686     0.13035612
N      -2.87590523    -3.19130122     1.66359959
H      -2.51088159    -2.27282673     1.44079560
H      -2.07765979    -3.80527194     1.77490073
C      -3.67077445    -3.14841271     2.89100604
H      -4.06182453    -4.14569509     3.10062958
H      -4.52861792    -2.49047687     2.74056290
H      -3.13273628    -2.80234300     3.78471244
16 
# or14: geometry number 18. H6-H11 distance: 2.1 
C       0.72718532    -0.67308137    -0.05823775
C       0.00560526     0.64721531     0.12883248
N      -1.24821884     0.56440356     0.65849309
O       0.54348570     1.71237454    -0.10238132
H      -1.74958805     1.41864787     0.83706564
H      -1.66117949    -0.30917404     0.92886353
H       1.23470332    -0.82433833    -1.00981936
H       1.48897578    -0.65194082     0.72294520
H       0.05186779    -1.50794686     0.13035612
N      -2.83728241    -3.10204428     1.64032995
H      -2.47225877    -2.18356979     1.41752596
H      -2.03903697    -3.71601500     1.75163109
C      -3.63215163    -3.05915577     2.86773640
H      -4.02320171    -4.05643815     3.07735994
H      -4.48999510    -2.40121993     2.71729326
H      -3.09411346    -2.71308606     3.76144280
16 
# or14: geometry number 19. H6-H11 distance: 2.0 
C       0.72718532    -0.67308137    -0.05823775
C       0.00560526     0.64721531     0.12883248
N      -1.24821884     0.56440356     0.65849309
O       0.54348570     1.71237454    -0.10238132
H      -1.74958805     1.41864787     0.83706564
H      -1.66117949    -0.30917404     0.92886353
H       1.23470332    -0.82433833    -1.00981936
H       1.48897578    -0.65194082     0.72294520
H       0.05186779    -1.50794686     0.13035612
N      -2.79865958    -3.01278734     1.61706031
H      -2.43363594    -2.09431285     1.39425632
H      -2.00041414    -3.62675806     1.72836145
C      -3.59352880    -2.96989883     2.84446676
H      -3.98457888    -3.96718121     3.05409030
H      -4.45137227    -2.31196299     2.69402362
H      -3.05549063    -2.62382912     3.73817316
16 
# or14: geometry number 20. H6-H11 distance: 1.9 
C       0.72718532    -0.67308137    -0.05823775
C       0.00560526     0.64721531     0.12883248
N      -1.24821884     0.56440356     0.65849309
O       0.54348570     1.71237454    -0.10238132
H      -1.74958805     1.41864787     0.83706564
H      -1.66117949    -0.30917404     0.92886353
H       1.23470332    -0.82433833    -1.00981936
H       1.48897578    -0.65194082     0.72294520
H       0.05186779    -1.50794686     0.13035612
N      -2.76003676    -2.92353040     1.59379067
H      -2.39501312    -2.00505591     1.37098668
H      -1.96179132    -3.53750112     1.70509181
C      -3.55490598    -2.88064189     2.82119712
H      -3.94595606    -3.87792427     3.03082066
H      -4.41274945    -2.22270605     2.67075398
H      -3.01686781    -2.53457218     3.71490352
16 
# or14: geometry number 21. H6-H11 distance: 1.8 
C       0.72718532    -0.67308137    -0.05823775
C       0.00560526     0.64721531     0.12883248
N      -1.24821884     0.56440356     0.65849309
O       0.54348570     1.71237454    -0.10238132
H      -1.74958805     1.41864787     0.83706564
H      -1.66117949    -0.30917404     0.92886353
H       1.23470332    -0.82433833    -1.00981936
H       1.48897578    -0.65194082     0.72294520
H       0.05186779    -1.50794686     0.13035612
N      -2.72141394    -2.83427346     1.57052103
H      -2.35639030    -1.91579897     1.34771704
H      -1.92316850    -3.44824418     1.68182217
C      -3.51628316    -2.79138495     2.79792748
H      -3.90733324    -3.78866733     3.00755102
H      -4.37412663    -2.13344911     2.64748434
H      -2.97824499    -2.44531524     3.69163388
16 
# or14: geometry number 22. H6-H11 distance: 1.7 
C       0.72718532    -0.67308137    -0.05823775
C       0.00560526     0.64721531     0.12883248
N      -1.24821884     0.56440356     0.65849309
O       0.54348570     1.71237454    -0.10238132
H      -1.74958805     1.41864787     0.83706564
H      -1.66117949    -0.30917404     0.92886353
H       1.23470332    -0.82433833    -1.00981936
H       1.48897578    -0.65194082     0.72294520
H       0.05186779    -1.50794686     0.13035612
N      -2.68279112    -2.74501652     1.54725139
H      -2.31776748    -1.82654203     1.32444740
H      -1.88454568    -3.35898724     1.65855253
C      -3.47766034    -2.70212801     2.77465784
H      -3.86871042    -3.69941039     2.98428138
H      -4.33550381    -2.04419217     2.62421470
H      -2.93962217    -2.35605830     3.66836424
16 
# or14: geometry number 23. H6-H11 distance: 1.6 
C       0.72718532    -0.67308137    -0.05823775
C       0.00560526     0.64721531     0.12883248
N      -1.24821884     0.56440356     0.65849309
O       0.54348570     1.71237454    -0.10238132
H      -1.74958805     1.41864787     0.83706564
H      -1.66117949    -0.30917404     0.92886353
H       1.23470332    -0.82433833    -1.00981936
H       1.48897578    -0.65194082     0.72294520
H       0.05186779    -1.50794686     0.13035612
N      -2.64416829    -2.65575958     1.52398175
H      -2.27914465    -1.73728509     1.30117776
H      -1.84592285    -3.26973030     1.63528289
C      -3.43903751    -2.61287107     2.75138820
H      -3.83008759    -3.61015345     2.96101174
H      -4.29688098    -1.95493523     2.60094506
H      -2.90099934    -2.26680136     3.64509460
16 
# or14: geometry number 24. H6-H11 distance: 1.5 
C       0.72718532    -0.67308137    -0.05823775
C       0.00560526     0.64721531     0.12883248
N      -1.24821884     0.56440356     0.65849309
O       0.54348570     1.71237454    -0.10238132
H      -1.74958805     1.41864787     0.83706564
H      -1.66117949    -0.30917404     0.92886353
H       1.23470332    -0.82433833    -1.00981936
H       1.48897578    -0.65194082     0.72294520
H       0.05186779    -1.50794686     0.13035612
N      -2.60554547    -2.56650264     1.50071211
H      -2.24052183    -1.64802815     1.27790812
H      -1.80730003    -3.18047336     1.61201325
C      -3.40041469    -2.52361413     2.72811856
H      -3.79146477    -3.52089651     2.93774210
H      -4.25825816    -1.86567829     2.57767542
H      -2.86237652    -2.17754442     3.62182496
16 
# or14: geometry number 25. H6-H11 distance: 1.4 
C       0.72718532    -0.67308137    -0.05823775
C       0.00560526     0.64721531     0.12883248
N      -1.24821884     0.56440356     0.65849309
O       0.54348570     1.71237454    -0.10238132
H      -1.74958805     1.41864787     0.83706564
H      -1.66117949    -0.30917404     0.92886353
H       1.23470332    -0.82433833    -1.00981936
H       1.48897578    -0.65194082     0.72294520
H       0.05186779    -1.50794686     0.13035612
N      -2.56692265    -2.47724570     1.47744247
H      -2.20189901    -1.55877121     1.25463848
H      -1.76867721    -3.09121642     1.58874361
C      -3.36179187    -2.43435719     2.70484892
H      -3.75284195    -3.43163957     2.91447246
H      -4.21963534    -1.77642135     2.55440578
H      -2.82375370    -2.08828748     3.59855532
16 
# or14: geometry number 26. H6-H11 distance: 1.35 
C       0.72718532    -0.67308137    -0.05823775
C       0.00560526     0.64721531     0.12883248
N      -1.24821884     0.56440356     0.65849309
O       0.54348570     1.71237454    -0.10238132
H      -1.74958805     1.41864787     0.83706564
H      -1.66117949    -0.30917404     0.92886353
H       1.23470332    -0.82433833    -1.00981936
H       1.48897578    -0.65194082     0.72294520
H       0.05186779    -1.50794686     0.13035612
N      -2.54761124    -2.43261723     1.46580765
H      -2.18258760    -1.51414274     1.24300366
H      -1.74936580    -3.04658795     1.57710879
C      -3.34248046    -2.38972872     2.69321410
H      -3.73353054    -3.38701110     2.90283764
H      -4.20032393    -1.73179288     2.54277096
H      -2.80444229    -2.04365901     3.58692050
16 
# or14: geometry number 27. H6-H11 distance: 1.3 
C       0.72718532    -0.67308137    -0.05823775
C       0.00560526     0.64721531     0.12883248
N      -1.24821884     0.56440356     0.65849309
O       0.54348570     1.71237454    -0.10238132
H      -1.74958805     1.41864787     0.83706564
H      -1.66117949    -0.30917404     0.92886353
H       1.23470332    -0.82433833    -1.00981936
H       1.48897578    -0.65194082     0.72294520
H       0.05186779    -1.50794686     0.13035612
N      -2.52829982    -2.38798876     1.45417283
H      -2.16327618    -1.46951427     1.23136884
H      -1.73005438    -3.00195948     1.56547397
C      -3.32316904    -2.34510025     2.68157928
H      -3.71421912    -3.34238263     2.89120282
H      -4.18101251    -1.68716441     2.53113614
H      -2.78513087    -1.99903054     3.57528568
16 
# or14: geometry number 28. H6-H11 distance: 1.25 
C       0.72718532    -0.67308137    -0.05823775
C       0.00560526     0.64721531     0.12883248
N      -1.24821884     0.56440356     0.65849309
O       0.54348570     1.71237454    -0.10238132
H      -1.74958805     1.41864787     0.83706564
H      -1.66117949    -0.30917404     0.92886353
H       1.23470332    -0.82433833    -1.00981936
H       1.48897578    -0.65194082     0.72294520
H       0.05186779    -1.50794686     0.13035612
N      -2.50898841    -2.34336029     1.44253801
H      -2.14396477    -1.42488580     1.21973402
H      -1.71074297    -2.95733101     1.55383915
C      -3.30385763    -2.30047178     2.66994446
H      -3.69490771    -3.29775416     2.87956800
H      -4.16170110    -1.64253594     2.51950132
H      -2.76581946    -1.95440207     3.56365086
16 
# or14: geometry number 29. H6-H11 distance: 1.2 
C       0.72718532    -0.67308137    -0.05823775
C       0.00560526     0.64721531     0.12883248
N      -1.24821884     0.56440356     0.65849309
O       0.54348570     1.71237454    -0.10238132
H      -1.74958805     1.41864787     0.83706564
H      -1.66117949    -0.30917404     0.92886353
H       1.23470332    -0.82433833    -1.00981936
H       1.48897578    -0.65194082     0.72294520
H       0.05186779    -1.50794686     0.13035612
N      -2.48967700    -2.29873182     1.43090319
H      -2.12465336    -1.38025733     1.20809920
H      -1.69143156    -2.91270254     1.54220433
C      -3.28454622    -2.25584331     2.65830964
H      -3.67559630    -3.25312569     2.86793318
H      -4.14238969    -1.59790747     2.50786650
H      -2.74650805    -1.90977360     3.55201604
