16 
# or16: geometry number 1. H6-H14 distance: 10 
C       1.05325364     0.02590175    -0.25506810
C       0.33167357     1.34619844    -0.06799787
N      -0.92215053     1.26338669     0.46166275
O       0.86955401     2.41135766    -0.29921167
H      -1.42351974     2.11763099     0.64023529
H      -1.33511118     0.38980909     0.73203318
H       1.56077164    -0.12535521    -1.20664971
H       1.81504409     0.04704231     0.52611485
H       0.37793610    -0.80896374    -0.06647423
N      -7.26471808    -9.30053937     3.28854602
H      -7.70605712   -10.17758222     3.53853596
H      -7.69746534    -8.58182717     3.85663610
C      -5.82388471    -9.35750309     3.53540111
H      -5.37213871    -8.40685024     3.24623151
H      -5.38158564   -10.13024497     2.90401402
H      -5.53547851    -9.56551734     4.57535898
16 
# or16: geometry number 2. H6-H14 distance: 9 
C       1.05325364     0.02590175    -0.25506810
C       0.33167357     1.34619844    -0.06799787
N      -0.92215053     1.26338669     0.46166275
O       0.86955401     2.41135766    -0.29921167
H      -1.42351974     2.11763099     0.64023529
H      -1.33511118     0.38980909     0.73203318
H       1.56077164    -0.12535521    -1.20664971
H       1.81504409     0.04704231     0.52611485
H       0.37793610    -0.80896374    -0.06647423
N      -6.86101533    -8.42087344     3.03712619
H      -7.30235437    -9.29791629     3.28711613
H      -7.29376259    -7.70216124     3.60521627
C      -5.42018196    -8.47783716     3.28398128
H      -4.96843596    -7.52718431     2.99481168
H      -4.97788289    -9.25057904     2.65259419
H      -5.13177576    -8.68585141     4.32393915
16 
# or16: geometry number 3. H6-H14 distance: 8 
C       1.05325364     0.02590175    -0.25506810
C       0.33167357     1.34619844    -0.06799787
N      -0.92215053     1.26338669     0.46166275
O       0.86955401     2.41135766    -0.29921167
H      -1.42351974     2.11763099     0.64023529
H      -1.33511118     0.38980909     0.73203318
H       1.56077164    -0.12535521    -1.20664971
H       1.81504409     0.04704231     0.52611485
H       0.37793610    -0.80896374    -0.06647423
N      -6.45731258    -7.54120751     2.78570636
H      -6.89865162    -8.41825036     3.03569630
H      -6.89005984    -6.82249531     3.35379644
C      -5.01647921    -7.59817123     3.03256145
H      -4.56473321    -6.64751838     2.74339185
H      -4.57418014    -8.37091311     2.40117436
H      -4.72807301    -7.80618548     4.07251932
16 
# or16: geometry number 4. H6-H14 distance: 7 
C       1.05325364     0.02590175    -0.25506810
C       0.33167357     1.34619844    -0.06799787
N      -0.92215053     1.26338669     0.46166275
O       0.86955401     2.41135766    -0.29921167
H      -1.42351974     2.11763099     0.64023529
H      -1.33511118     0.38980909     0.73203318
H       1.56077164    -0.12535521    -1.20664971
H       1.81504409     0.04704231     0.52611485
H       0.37793610    -0.80896374    -0.06647423
N      -6.05360982    -6.66154157     2.53428652
H      -6.49494886    -7.53858442     2.78427646
H      -6.48635708    -5.94282937     3.10237660
C      -4.61277645    -6.71850529     2.78114161
H      -4.16103045    -5.76785244     2.49197201
H      -4.17047738    -7.49124717     2.14975452
H      -4.32437025    -6.92651954     3.82109948
16 
# or16: geometry number 5. H6-H14 distance: 6 
C       1.05325364     0.02590175    -0.25506810
C       0.33167357     1.34619844    -0.06799787
N      -0.92215053     1.26338669     0.46166275
O       0.86955401     2.41135766    -0.29921167
H      -1.42351974     2.11763099     0.64023529
H      -1.33511118     0.38980909     0.73203318
H       1.56077164    -0.12535521    -1.20664971
H       1.81504409     0.04704231     0.52611485
H       0.37793610    -0.80896374    -0.06647423
N      -5.64990707    -5.78187564     2.28286669
H      -6.09124611    -6.65891849     2.53285663
H      -6.08265433    -5.06316344     2.85095677
C      -4.20907370    -5.83883936     2.52972178
H      -3.75732770    -4.88818651     2.24055218
H      -3.76677463    -6.61158124     1.89833469
H      -3.92066750    -6.04685361     3.56967965
16 
# or16: geometry number 6. H6-H14 distance: 5 
C       1.05325364     0.02590175    -0.25506810
C       0.33167357     1.34619844    -0.06799787
N      -0.92215053     1.26338669     0.46166275
O       0.86955401     2.41135766    -0.29921167
H      -1.42351974     2.11763099     0.64023529
H      -1.33511118     0.38980909     0.73203318
H       1.56077164    -0.12535521    -1.20664971
H       1.81504409     0.04704231     0.52611485
H       0.37793610    -0.80896374    -0.06647423
N      -5.24620432    -4.90220971     2.03144686
H      -5.68754336    -5.77925256     2.28143680
H      -5.67895158    -4.18349751     2.59953694
C      -3.80537095    -4.95917343     2.27830195
H      -3.35362495    -4.00852058     1.98913235
H      -3.36307188    -5.73191531     1.64691486
H      -3.51696475    -5.16718768     3.31825982
16 
# or16: geometry number 7. H6-H14 distance: 4.5 
C       1.05325364     0.02590175    -0.25506810
C       0.33167357     1.34619844    -0.06799787
N      -0.92215053     1.26338669     0.46166275
O       0.86955401     2.41135766    -0.29921167
H      -1.42351974     2.11763099     0.64023529
H      -1.33511118     0.38980909     0.73203318
H       1.56077164    -0.12535521    -1.20664971
H       1.81504409     0.04704231     0.52611485
H       0.37793610    -0.80896374    -0.06647423
N      -5.04435294    -4.46237674     1.90573694
H      -5.48569198    -5.33941959     2.15572688
H      -5.47710020    -3.74366454     2.47382702
C      -3.60351957    -4.51934046     2.15259203
H      -3.15177357    -3.56868761     1.86342243
H      -3.16122050    -5.29208234     1.52120494
H      -3.31511337    -4.72735471     3.19254990
16 
# or16: geometry number 8. H6-H14 distance: 4 
C       1.05325364     0.02590175    -0.25506810
C       0.33167357     1.34619844    -0.06799787
N      -0.92215053     1.26338669     0.46166275
O       0.86955401     2.41135766    -0.29921167
H      -1.42351974     2.11763099     0.64023529
H      -1.33511118     0.38980909     0.73203318
H       1.56077164    -0.12535521    -1.20664971
H       1.81504409     0.04704231     0.52611485
H       0.37793610    -0.80896374    -0.06647423
N      -4.84250156    -4.02254377     1.78002702
H      -5.28384060    -4.89958662     2.03001696
H      -5.27524882    -3.30383157     2.34811710
C      -3.40166819    -4.07950749     2.02688211
H      -2.94992219    -3.12885464     1.73771251
H      -2.95936912    -4.85224937     1.39549502
H      -3.11326199    -4.28752174     3.06683998
16 
# or16: geometry number 9. H6-H14 distance: 3.7 
C       1.05325364     0.02590175    -0.25506810
C       0.33167357     1.34619844    -0.06799787
N      -0.92215053     1.26338669     0.46166275
O       0.86955401     2.41135766    -0.29921167
H      -1.42351974     2.11763099     0.64023529
H      -1.33511118     0.38980909     0.73203318
H       1.56077164    -0.12535521    -1.20664971
H       1.81504409     0.04704231     0.52611485
H       0.37793610    -0.80896374    -0.06647423
N      -4.72139074    -3.75864399     1.70460107
H      -5.16272978    -4.63568684     1.95459101
H      -5.15413800    -3.03993179     2.27269115
C      -3.28055737    -3.81560771     1.95145616
H      -2.82881137    -2.86495486     1.66228656
H      -2.83825830    -4.58834959     1.32006907
H      -2.99215117    -4.02362196     2.99141403
16 
# or16: geometry number 10. H6-H14 distance: 3.4 
C       1.05325364     0.02590175    -0.25506810
C       0.33167357     1.34619844    -0.06799787
N      -0.92215053     1.26338669     0.46166275
O       0.86955401     2.41135766    -0.29921167
H      -1.42351974     2.11763099     0.64023529
H      -1.33511118     0.38980909     0.73203318
H       1.56077164    -0.12535521    -1.20664971
H       1.81504409     0.04704231     0.52611485
H       0.37793610    -0.80896374    -0.06647423
N      -4.60027991    -3.49474421     1.62917512
H      -5.04161895    -4.37178706     1.87916506
H      -5.03302717    -2.77603201     2.19726520
C      -3.15944654    -3.55170793     1.87603021
H      -2.70770054    -2.60105508     1.58686061
H      -2.71714747    -4.32444981     1.24464312
H      -2.87104034    -3.75972218     2.91598808
16 
# or16: geometry number 11. H6-H14 distance: 3.1 
C       1.05325364     0.02590175    -0.25506810
C       0.33167357     1.34619844    -0.06799787
N      -0.92215053     1.26338669     0.46166275
O       0.86955401     2.41135766    -0.29921167
H      -1.42351974     2.11763099     0.64023529
H      -1.33511118     0.38980909     0.73203318
H       1.56077164    -0.12535521    -1.20664971
H       1.81504409     0.04704231     0.52611485
H       0.37793610    -0.80896374    -0.06647423
N      -4.47916909    -3.23084443     1.55374917
H      -4.92050813    -4.10788728     1.80373911
H      -4.91191635    -2.51213223     2.12183925
C      -3.03833572    -3.28780815     1.80060426
H      -2.58658972    -2.33715530     1.51143466
H      -2.59603665    -4.06055003     1.16921717
H      -2.74992952    -3.49582240     2.84056213
16 
# or16: geometry number 12. H6-H14 distance: 2.9 
C       1.05325364     0.02590175    -0.25506810
C       0.33167357     1.34619844    -0.06799787
N      -0.92215053     1.26338669     0.46166275
O       0.86955401     2.41135766    -0.29921167
H      -1.42351974     2.11763099     0.64023529
H      -1.33511118     0.38980909     0.73203318
H       1.56077164    -0.12535521    -1.20664971
H       1.81504409     0.04704231     0.52611485
H       0.37793610    -0.80896374    -0.06647423
N      -4.39842853    -3.05491125     1.50346521
H      -4.83976757    -3.93195410     1.75345515
H      -4.83117579    -2.33619905     2.07155529
C      -2.95759516    -3.11187497     1.75032030
H      -2.50584916    -2.16122212     1.46115070
H      -2.51529609    -3.88461685     1.11893321
H      -2.66918896    -3.31988922     2.79027817
16 
# or16: geometry number 13. H6-H14 distance: 2.7 
C       1.05325364     0.02590175    -0.25506810
C       0.33167357     1.34619844    -0.06799787
N      -0.92215053     1.26338669     0.46166275
O       0.86955401     2.41135766    -0.29921167
H      -1.42351974     2.11763099     0.64023529
H      -1.33511118     0.38980909     0.73203318
H       1.56077164    -0.12535521    -1.20664971
H       1.81504409     0.04704231     0.52611485
H       0.37793610    -0.80896374    -0.06647423
N      -4.31768798    -2.87897806     1.45318124
H      -4.75902702    -3.75602091     1.70317118
H      -4.75043524    -2.16026586     2.02127132
C      -2.87685461    -2.93594178     1.70003633
H      -2.42510861    -1.98528893     1.41086673
H      -2.43455554    -3.70868366     1.06864924
H      -2.58844841    -3.14395603     2.73999420
16 
# or16: geometry number 14. H6-H14 distance: 2.5 
C       1.05325364     0.02590175    -0.25506810
C       0.33167357     1.34619844    -0.06799787
N      -0.92215053     1.26338669     0.46166275
O       0.86955401     2.41135766    -0.29921167
H      -1.42351974     2.11763099     0.64023529
H      -1.33511118     0.38980909     0.73203318
H       1.56077164    -0.12535521    -1.20664971
H       1.81504409     0.04704231     0.52611485
H       0.37793610    -0.80896374    -0.06647423
N      -4.23694743    -2.70304487     1.40289727
H      -4.67828647    -3.58008772     1.65288721
H      -4.66969469    -1.98433267     1.97098735
C      -2.79611406    -2.76000859     1.64975236
H      -2.34436806    -1.80935574     1.36058276
H      -2.35381499    -3.53275047     1.01836527
H      -2.50770786    -2.96802284     2.68971023
16 
# or16: geometry number 15. H6-H14 distance: 2.4 
C       1.05325364     0.02590175    -0.25506810
C       0.33167357     1.34619844    -0.06799787
N      -0.92215053     1.26338669     0.46166275
O       0.86955401     2.41135766    -0.29921167
H      -1.42351974     2.11763099     0.64023529
H      -1.33511118     0.38980909     0.73203318
H       1.56077164    -0.12535521    -1.20664971
H       1.81504409     0.04704231     0.52611485
H       0.37793610    -0.80896374    -0.06647423
N      -4.19657716    -2.61507828     1.37775529
H      -4.63791620    -3.49212113     1.62774523
H      -4.62932442    -1.89636608     1.94584537
C      -2.75574379    -2.67204200     1.62461038
H      -2.30399779    -1.72138915     1.33544078
H      -2.31344472    -3.44478388     0.99322329
H      -2.46733759    -2.88005625     2.66456825
16 
# or16: geometry number 16. H6-H14 distance: 2.3 
C       1.05325364     0.02590175    -0.25506810
C       0.33167357     1.34619844    -0.06799787
N      -0.92215053     1.26338669     0.46166275
O       0.86955401     2.41135766    -0.29921167
H      -1.42351974     2.11763099     0.64023529
H      -1.33511118     0.38980909     0.73203318
H       1.56077164    -0.12535521    -1.20664971
H       1.81504409     0.04704231     0.52611485
H       0.37793610    -0.80896374    -0.06647423
N      -4.15620688    -2.52711169     1.35261331
H      -4.59754592    -3.40415454     1.60260325
H      -4.58895414    -1.80839949     1.92070339
C      -2.71537351    -2.58407541     1.59946840
H      -2.26362751    -1.63342256     1.31029880
H      -2.27307444    -3.35681729     0.96808131
H      -2.42696731    -2.79208966     2.63942627
16 
# or16: geometry number 17. H6-H14 distance: 2.2 
C       1.05325364     0.02590175    -0.25506810
C       0.33167357     1.34619844    -0.06799787
N      -0.92215053     1.26338669     0.46166275
O       0.86955401     2.41135766    -0.29921167
H      -1.42351974     2.11763099     0.64023529
H      -1.33511118     0.38980909     0.73203318
H       1.56077164    -0.12535521    -1.20664971
H       1.81504409     0.04704231     0.52611485
H       0.37793610    -0.80896374    -0.06647423
N      -4.11583661    -2.43914509     1.32747132
H      -4.55717565    -3.31618794     1.57746126
H      -4.54858387    -1.72043289     1.89556140
C      -2.67500324    -2.49610881     1.57432641
H      -2.22325724    -1.54545596     1.28515681
H      -2.23270417    -3.26885069     0.94293932
H      -2.38659704    -2.70412306     2.61428428
16 
# or16: geometry number 18. H6-H14 distance: 2.1 
C       1.05325364     0.02590175    -0.25506810
C       0.33167357     1.34619844    -0.06799787
N      -0.92215053     1.26338669     0.46166275
O       0.86955401     2.41135766    -0.29921167
H      -1.42351974     2.11763099     0.64023529
H      -1.33511118     0.38980909     0.73203318
H       1.56077164    -0.12535521    -1.20664971
H       1.81504409     0.04704231     0.52611485
H       0.37793610    -0.80896374    -0.06647423
N      -4.07546633    -2.35117850     1.30232934
H      -4.51680537    -3.22822135     1.55231928
H      -4.50821359    -1.63246630     1.87041942
C      -2.63463296    -2.40814222     1.54918443
H      -2.18288696    -1.45748937     1.26001483
H      -2.19233389    -3.18088410     0.91779734
H      -2.34622676    -2.61615647     2.58914230
16 
# or16: geometry number 19. H6-H14 distance: 2.0 
C       1.05325364     0.02590175    -0.25506810
C       0.33167357     1.34619844    -0.06799787
N      -0.92215053     1.26338669     0.46166275
O       0.86955401     2.41135766    -0.29921167
H      -1.42351974     2.11763099     0.64023529
H      -1.33511118     0.38980909     0.73203318
H       1.56077164    -0.12535521    -1.20664971
H       1.81504409     0.04704231     0.52611485
H       0.37793610    -0.80896374    -0.06647423
N      -4.03509606    -2.26321191     1.27718736
H      -4.47643510    -3.14025476     1.52717730
H      -4.46784332    -1.54449971     1.84527744
C      -2.59426269    -2.32017563     1.52404245
H      -2.14251669    -1.36952278     1.23487285
H      -2.15196362    -3.09291751     0.89265536
H      -2.30585649    -2.52818988     2.56400032
16 
# or16: geometry number 20. H6-H14 distance: 1.9 
C       1.05325364     0.02590175    -0.25506810
C       0.33167357     1.34619844    -0.06799787
N      -0.92215053     1.26338669     0.46166275
O       0.86955401     2.41135766    -0.29921167
H      -1.42351974     2.11763099     0.64023529
H      -1.33511118     0.38980909     0.73203318
H       1.56077164    -0.12535521    -1.20664971
H       1.81504409     0.04704231     0.52611485
H       0.37793610    -0.80896374    -0.06647423
N      -3.99472578    -2.17524531     1.25204537
H      -4.43606482    -3.05228816     1.50203531
H      -4.42747304    -1.45653311     1.82013545
C      -2.55389241    -2.23220903     1.49890046
H      -2.10214641    -1.28155618     1.20973086
H      -2.11159334    -3.00495091     0.86751337
H      -2.26548621    -2.44022328     2.53885833
16 
# or16: geometry number 21. H6-H14 distance: 1.8 
C       1.05325364     0.02590175    -0.25506810
C       0.33167357     1.34619844    -0.06799787
N      -0.92215053     1.26338669     0.46166275
O       0.86955401     2.41135766    -0.29921167
H      -1.42351974     2.11763099     0.64023529
H      -1.33511118     0.38980909     0.73203318
H       1.56077164    -0.12535521    -1.20664971
H       1.81504409     0.04704231     0.52611485
H       0.37793610    -0.80896374    -0.06647423
N      -3.95435551    -2.08727872     1.22690339
H      -4.39569455    -2.96432157     1.47689333
H      -4.38710277    -1.36856652     1.79499347
C      -2.51352214    -2.14424244     1.47375848
H      -2.06177614    -1.19358959     1.18458888
H      -2.07122307    -2.91698432     0.84237139
H      -2.22511594    -2.35225669     2.51371635
16 
# or16: geometry number 22. H6-H14 distance: 1.7 
C       1.05325364     0.02590175    -0.25506810
C       0.33167357     1.34619844    -0.06799787
N      -0.92215053     1.26338669     0.46166275
O       0.86955401     2.41135766    -0.29921167
H      -1.42351974     2.11763099     0.64023529
H      -1.33511118     0.38980909     0.73203318
H       1.56077164    -0.12535521    -1.20664971
H       1.81504409     0.04704231     0.52611485
H       0.37793610    -0.80896374    -0.06647423
N      -3.91398523    -1.99931213     1.20176141
H      -4.35532427    -2.87635498     1.45175135
H      -4.34673249    -1.28059993     1.76985149
C      -2.47315186    -2.05627585     1.44861650
H      -2.02140586    -1.10562300     1.15944690
H      -2.03085279    -2.82901773     0.81722941
H      -2.18474566    -2.26429010     2.48857437
16 
# or16: geometry number 23. H6-H14 distance: 1.6 
C       1.05325364     0.02590175    -0.25506810
C       0.33167357     1.34619844    -0.06799787
N      -0.92215053     1.26338669     0.46166275
O       0.86955401     2.41135766    -0.29921167
H      -1.42351974     2.11763099     0.64023529
H      -1.33511118     0.38980909     0.73203318
H       1.56077164    -0.12535521    -1.20664971
H       1.81504409     0.04704231     0.52611485
H       0.37793610    -0.80896374    -0.06647423
N      -3.87361496    -1.91134553     1.17661942
H      -4.31495400    -2.78838838     1.42660936
H      -4.30636222    -1.19263333     1.74470950
C      -2.43278159    -1.96830925     1.42347451
H      -1.98103559    -1.01765640     1.13430491
H      -1.99048252    -2.74105113     0.79208742
H      -2.14437539    -2.17632350     2.46343238
16 
# or16: geometry number 24. H6-H14 distance: 1.5 
C       1.05325364     0.02590175    -0.25506810
C       0.33167357     1.34619844    -0.06799787
N      -0.92215053     1.26338669     0.46166275
O       0.86955401     2.41135766    -0.29921167
H      -1.42351974     2.11763099     0.64023529
H      -1.33511118     0.38980909     0.73203318
H       1.56077164    -0.12535521    -1.20664971
H       1.81504409     0.04704231     0.52611485
H       0.37793610    -0.80896374    -0.06647423
N      -3.83324468    -1.82337894     1.15147744
H      -4.27458372    -2.70042179     1.40146738
H      -4.26599194    -1.10466674     1.71956752
C      -2.39241131    -1.88034266     1.39833253
H      -1.94066531    -0.92968981     1.10916293
H      -1.95011224    -2.65308454     0.76694544
H      -2.10400511    -2.08835691     2.43829040
16 
# or16: geometry number 25. H6-H14 distance: 1.4 
C       1.05325364     0.02590175    -0.25506810
C       0.33167357     1.34619844    -0.06799787
N      -0.92215053     1.26338669     0.46166275
O       0.86955401     2.41135766    -0.29921167
H      -1.42351974     2.11763099     0.64023529
H      -1.33511118     0.38980909     0.73203318
H       1.56077164    -0.12535521    -1.20664971
H       1.81504409     0.04704231     0.52611485
H       0.37793610    -0.80896374    -0.06647423
N      -3.79287440    -1.73541235     1.12633546
H      -4.23421344    -2.61245520     1.37632540
H      -4.22562166    -1.01670015     1.69442554
C      -2.35204103    -1.79237607     1.37319055
H      -1.90029503    -0.84172322     1.08402095
H      -1.90974196    -2.56511795     0.74180346
H      -2.06363483    -2.00039032     2.41314842
16 
# or16: geometry number 26. H6-H14 distance: 1.35 
C       1.05325364     0.02590175    -0.25506810
C       0.33167357     1.34619844    -0.06799787
N      -0.92215053     1.26338669     0.46166275
O       0.86955401     2.41135766    -0.29921167
H      -1.42351974     2.11763099     0.64023529
H      -1.33511118     0.38980909     0.73203318
H       1.56077164    -0.12535521    -1.20664971
H       1.81504409     0.04704231     0.52611485
H       0.37793610    -0.80896374    -0.06647423
N      -3.77268927    -1.69142905     1.11376447
H      -4.21402831    -2.56847190     1.36375441
H      -4.20543653    -0.97271685     1.68185455
C      -2.33185590    -1.74839277     1.36061956
H      -1.88010990    -0.79773992     1.07144996
H      -1.88955683    -2.52113465     0.72923247
H      -2.04344970    -1.95640702     2.40057743
16 
# or16: geometry number 27. H6-H14 distance: 1.3 
C       1.05325364     0.02590175    -0.25506810
C       0.33167357     1.34619844    -0.06799787
N      -0.92215053     1.26338669     0.46166275
O       0.86955401     2.41135766    -0.29921167
H      -1.42351974     2.11763099     0.64023529
H      -1.33511118     0.38980909     0.73203318
H       1.56077164    -0.12535521    -1.20664971
H       1.81504409     0.04704231     0.52611485
H       0.37793610    -0.80896374    -0.06647423
N      -3.75250413    -1.64744575     1.10119347
H      -4.19384317    -2.52448860     1.35118341
H      -4.18525139    -0.92873355     1.66928355
C      -2.31167076    -1.70440947     1.34804856
H      -1.85992476    -0.75375662     1.05887896
H      -1.86937169    -2.47715135     0.71666147
H      -2.02326456    -1.91242372     2.38800643
16 
# or16: geometry number 28. H6-H14 distance: 1.25 
C       1.05325364     0.02590175    -0.25506810
C       0.33167357     1.34619844    -0.06799787
N      -0.92215053     1.26338669     0.46166275
O       0.86955401     2.41135766    -0.29921167
H      -1.42351974     2.11763099     0.64023529
H      -1.33511118     0.38980909     0.73203318
H       1.56077164    -0.12535521    -1.20664971
H       1.81504409     0.04704231     0.52611485
H       0.37793610    -0.80896374    -0.06647423
N      -3.73231899    -1.60346246     1.08862248
H      -4.17365803    -2.48050531     1.33861242
H      -4.16506625    -0.88475026     1.65671256
C      -2.29148562    -1.66042618     1.33547757
H      -1.83973962    -0.70977333     1.04630797
H      -1.84918655    -2.43316806     0.70409048
H      -2.00307942    -1.86844043     2.37543544
16 
# or16: geometry number 29. H6-H14 distance: 1.2 
C       1.05325364     0.02590175    -0.25506810
C       0.33167357     1.34619844    -0.06799787
N      -0.92215053     1.26338669     0.46166275
O       0.86955401     2.41135766    -0.29921167
H      -1.42351974     2.11763099     0.64023529
H      -1.33511118     0.38980909     0.73203318
H       1.56077164    -0.12535521    -1.20664971
H       1.81504409     0.04704231     0.52611485
H       0.37793610    -0.80896374    -0.06647423
N      -3.71213385    -1.55947916     1.07605149
H      -4.15347289    -2.43652201     1.32604143
H      -4.14488111    -0.84076696     1.64414157
C      -2.27130048    -1.61644288     1.32290658
H      -1.81955448    -0.66579003     1.03373698
H      -1.82900141    -2.38918476     0.69151949
H      -1.98289428    -1.82445713     2.36286445
16 
# or16: geometry number 30. H6-H14 distance: 1.15 
C       1.05325364     0.02590175    -0.25506810
C       0.33167357     1.34619844    -0.06799787
N      -0.92215053     1.26338669     0.46166275
O       0.86955401     2.41135766    -0.29921167
H      -1.42351974     2.11763099     0.64023529
H      -1.33511118     0.38980909     0.73203318
H       1.56077164    -0.12535521    -1.20664971
H       1.81504409     0.04704231     0.52611485
H       0.37793610    -0.80896374    -0.06647423
N      -3.69194872    -1.51549586     1.06348050
H      -4.13328776    -2.39253871     1.31347044
H      -4.12469598    -0.79678366     1.63157058
C      -2.25111535    -1.57245958     1.31033559
H      -1.79936935    -0.62180673     1.02116599
H      -1.80881628    -2.34520146     0.67894850
H      -1.96270915    -1.78047383     2.35029346
16 
# or16: geometry number 31. H6-H14 distance: 1.1 
C       1.05325364     0.02590175    -0.25506810
C       0.33167357     1.34619844    -0.06799787
N      -0.92215053     1.26338669     0.46166275
O       0.86955401     2.41135766    -0.29921167
H      -1.42351974     2.11763099     0.64023529
H      -1.33511118     0.38980909     0.73203318
H       1.56077164    -0.12535521    -1.20664971
H       1.81504409     0.04704231     0.52611485
H       0.37793610    -0.80896374    -0.06647423
N      -3.67176358    -1.47151257     1.05090951
H      -4.11310262    -2.34855542     1.30089945
H      -4.10451084    -0.75280037     1.61899959
C      -2.23093021    -1.52847629     1.29776460
H      -1.77918421    -0.57782344     1.00859500
H      -1.78863114    -2.30121817     0.66637751
H      -1.94252401    -1.73649054     2.33772247
