16 
# or17: geometry number 1. H8-N10 distance: 10 
C       0.90753803     0.65727593    -0.12236667
C       0.13745650     1.95103719     0.05655409
N      -1.11675967     1.82397883     0.57643004
O       0.63849405     3.03450332    -0.17236048
H      -1.64994508     2.65990243     0.74945495
H      -1.50016695     0.93652688     0.84513505
H       1.42773996     0.52290040    -1.06962267
H       1.66182222     0.70703685     0.66477857
H       0.26121131    -0.20105875     0.06241740
N       8.50311118     1.25953365     7.93743370
H       7.96133518     1.42701577     8.77702156
H       8.99141752     2.12182980     7.72637435
C       9.45156771     0.16492054     8.14343239
H      10.01198951    -0.00285806     7.22190535
H       8.90026985    -0.75251609     8.35741567
H      10.17599068     0.32040656     8.95521801
16 
# or17: geometry number 2. H8-N10 distance: 9 
C       0.90753803     0.65727593    -0.12236667
C       0.13745650     1.95103719     0.05655409
N      -1.11675967     1.82397883     0.57643004
O       0.63849405     3.03450332    -0.17236048
H      -1.64994508     2.65990243     0.74945495
H      -1.50016695     0.93652688     0.84513505
H       1.42773996     0.52290040    -1.06962267
H       1.66182222     0.70703685     0.66477857
H       0.26121131    -0.20105875     0.06241740
N       7.81898228     1.20428397     7.21016819
H       7.27720628     1.37176609     8.04975605
H       8.30728862     2.06658012     6.99910884
C       8.76743881     0.10967086     7.41616688
H       9.32786061    -0.05810774     6.49463984
H       8.21614095    -0.80776577     7.63015016
H       9.49186178     0.26515688     8.22795250
16 
# or17: geometry number 3. H8-N10 distance: 8 
C       0.90753803     0.65727593    -0.12236667
C       0.13745650     1.95103719     0.05655409
N      -1.11675967     1.82397883     0.57643004
O       0.63849405     3.03450332    -0.17236048
H      -1.64994508     2.65990243     0.74945495
H      -1.50016695     0.93652688     0.84513505
H       1.42773996     0.52290040    -1.06962267
H       1.66182222     0.70703685     0.66477857
H       0.26121131    -0.20105875     0.06241740
N       7.13485338     1.14903429     6.48290268
H       6.59307738     1.31651641     7.32249054
H       7.62315972     2.01133044     6.27184333
C       8.08330991     0.05442118     6.68890137
H       8.64373171    -0.11335742     5.76737433
H       7.53201205    -0.86301545     6.90288465
H       8.80773288     0.20990720     7.50068699
16 
# or17: geometry number 4. H8-N10 distance: 7 
C       0.90753803     0.65727593    -0.12236667
C       0.13745650     1.95103719     0.05655409
N      -1.11675967     1.82397883     0.57643004
O       0.63849405     3.03450332    -0.17236048
H      -1.64994508     2.65990243     0.74945495
H      -1.50016695     0.93652688     0.84513505
H       1.42773996     0.52290040    -1.06962267
H       1.66182222     0.70703685     0.66477857
H       0.26121131    -0.20105875     0.06241740
N       6.45072449     1.09378461     5.75563716
H       5.90894849     1.26126673     6.59522502
H       6.93903083     1.95608076     5.54457781
C       7.39918102    -0.00082850     5.96163585
H       7.95960282    -0.16860710     5.04010881
H       6.84788316    -0.91826513     6.17561913
H       8.12360399     0.15465752     6.77342147
16 
# or17: geometry number 5. H8-N10 distance: 6 
C       0.90753803     0.65727593    -0.12236667
C       0.13745650     1.95103719     0.05655409
N      -1.11675967     1.82397883     0.57643004
O       0.63849405     3.03450332    -0.17236048
H      -1.64994508     2.65990243     0.74945495
H      -1.50016695     0.93652688     0.84513505
H       1.42773996     0.52290040    -1.06962267
H       1.66182222     0.70703685     0.66477857
H       0.26121131    -0.20105875     0.06241740
N       5.76659559     1.03853493     5.02837165
H       5.22481959     1.20601705     5.86795951
H       6.25490193     1.90083108     4.81731230
C       6.71505212    -0.05607818     5.23437034
H       7.27547392    -0.22385678     4.31284330
H       6.16375426    -0.97351481     5.44835362
H       7.43947509     0.09940784     6.04615596
16 
# or17: geometry number 6. H8-N10 distance: 5 
C       0.90753803     0.65727593    -0.12236667
C       0.13745650     1.95103719     0.05655409
N      -1.11675967     1.82397883     0.57643004
O       0.63849405     3.03450332    -0.17236048
H      -1.64994508     2.65990243     0.74945495
H      -1.50016695     0.93652688     0.84513505
H       1.42773996     0.52290040    -1.06962267
H       1.66182222     0.70703685     0.66477857
H       0.26121131    -0.20105875     0.06241740
N       5.08246670     0.98328525     4.30110614
H       4.54069070     1.15076737     5.14069400
H       5.57077304     1.84558140     4.09004679
C       6.03092323    -0.11132786     4.50710483
H       6.59134503    -0.27910646     3.58557779
H       5.47962537    -1.02876449     4.72108811
H       6.75534620     0.04415816     5.31889045
16 
# or17: geometry number 7. H8-N10 distance: 4.5 
C       0.90753803     0.65727593    -0.12236667
C       0.13745650     1.95103719     0.05655409
N      -1.11675967     1.82397883     0.57643004
O       0.63849405     3.03450332    -0.17236048
H      -1.64994508     2.65990243     0.74945495
H      -1.50016695     0.93652688     0.84513505
H       1.42773996     0.52290040    -1.06962267
H       1.66182222     0.70703685     0.66477857
H       0.26121131    -0.20105875     0.06241740
N       4.74040225     0.95566041     3.93747338
H       4.19862625     1.12314253     4.77706124
H       5.22870859     1.81795656     3.72641403
C       5.68885878    -0.13895270     4.14347207
H       6.24928058    -0.30673130     3.22194503
H       5.13756092    -1.05638933     4.35745535
H       6.41328175     0.01653332     4.95525769
16 
# or17: geometry number 8. H8-N10 distance: 4 
C       0.90753803     0.65727593    -0.12236667
C       0.13745650     1.95103719     0.05655409
N      -1.11675967     1.82397883     0.57643004
O       0.63849405     3.03450332    -0.17236048
H      -1.64994508     2.65990243     0.74945495
H      -1.50016695     0.93652688     0.84513505
H       1.42773996     0.52290040    -1.06962267
H       1.66182222     0.70703685     0.66477857
H       0.26121131    -0.20105875     0.06241740
N       4.39833780     0.92803557     3.57384062
H       3.85656180     1.09551769     4.41342848
H       4.88664414     1.79033172     3.36278127
C       5.34679433    -0.16657754     3.77983931
H       5.90721613    -0.33435614     2.85831227
H       4.79549647    -1.08401417     3.99382259
H       6.07121730    -0.01109152     4.59162493
16 
# or17: geometry number 9. H8-N10 distance: 3.7 
C       0.90753803     0.65727593    -0.12236667
C       0.13745650     1.95103719     0.05655409
N      -1.11675967     1.82397883     0.57643004
O       0.63849405     3.03450332    -0.17236048
H      -1.64994508     2.65990243     0.74945495
H      -1.50016695     0.93652688     0.84513505
H       1.42773996     0.52290040    -1.06962267
H       1.66182222     0.70703685     0.66477857
H       0.26121131    -0.20105875     0.06241740
N       4.19309913     0.91146067     3.35566097
H       3.65132313     1.07894279     4.19524883
H       4.68140547     1.77375682     3.14460162
C       5.14155566    -0.18315244     3.56165966
H       5.70197746    -0.35093104     2.64013262
H       4.59025780    -1.10058907     3.77564294
H       5.86597863    -0.02766642     4.37344528
16 
# or17: geometry number 10. H8-N10 distance: 3.4 
C       0.90753803     0.65727593    -0.12236667
C       0.13745650     1.95103719     0.05655409
N      -1.11675967     1.82397883     0.57643004
O       0.63849405     3.03450332    -0.17236048
H      -1.64994508     2.65990243     0.74945495
H      -1.50016695     0.93652688     0.84513505
H       1.42773996     0.52290040    -1.06962267
H       1.66182222     0.70703685     0.66477857
H       0.26121131    -0.20105875     0.06241740
N       3.98786046     0.89488576     3.13748132
H       3.44608446     1.06236788     3.97706918
H       4.47616680     1.75718191     2.92642197
C       4.93631699    -0.19972735     3.34348001
H       5.49673879    -0.36750595     2.42195297
H       4.38501913    -1.11716398     3.55746329
H       5.66073996    -0.04424133     4.15526563
16 
# or17: geometry number 11. H8-N10 distance: 3.1 
C       0.90753803     0.65727593    -0.12236667
C       0.13745650     1.95103719     0.05655409
N      -1.11675967     1.82397883     0.57643004
O       0.63849405     3.03450332    -0.17236048
H      -1.64994508     2.65990243     0.74945495
H      -1.50016695     0.93652688     0.84513505
H       1.42773996     0.52290040    -1.06962267
H       1.66182222     0.70703685     0.66477857
H       0.26121131    -0.20105875     0.06241740
N       3.78262180     0.87831086     2.91930166
H       3.24084580     1.04579298     3.75888952
H       4.27092814     1.74060701     2.70824231
C       4.73107833    -0.21630225     3.12530035
H       5.29150013    -0.38408085     2.20377331
H       4.17978047    -1.13373888     3.33928363
H       5.45550130    -0.06081623     3.93708597
16 
# or17: geometry number 12. H8-N10 distance: 2.9 
C       0.90753803     0.65727593    -0.12236667
C       0.13745650     1.95103719     0.05655409
N      -1.11675967     1.82397883     0.57643004
O       0.63849405     3.03450332    -0.17236048
H      -1.64994508     2.65990243     0.74945495
H      -1.50016695     0.93652688     0.84513505
H       1.42773996     0.52290040    -1.06962267
H       1.66182222     0.70703685     0.66477857
H       0.26121131    -0.20105875     0.06241740
N       3.64579602     0.86726092     2.77384856
H       3.10402002     1.03474304     3.61343642
H       4.13410236     1.72955707     2.56278921
C       4.59425255    -0.22735219     2.97984725
H       5.15467435    -0.39513079     2.05832021
H       4.04295469    -1.14478882     3.19383053
H       5.31867552    -0.07186617     3.79163287
16 
# or17: geometry number 13. H8-N10 distance: 2.7 
C       0.90753803     0.65727593    -0.12236667
C       0.13745650     1.95103719     0.05655409
N      -1.11675967     1.82397883     0.57643004
O       0.63849405     3.03450332    -0.17236048
H      -1.64994508     2.65990243     0.74945495
H      -1.50016695     0.93652688     0.84513505
H       1.42773996     0.52290040    -1.06962267
H       1.66182222     0.70703685     0.66477857
H       0.26121131    -0.20105875     0.06241740
N       3.50897024     0.85621099     2.62839546
H       2.96719424     1.02369311     3.46798332
H       3.99727658     1.71850714     2.41733611
C       4.45742677    -0.23840212     2.83439415
H       5.01784857    -0.40618072     1.91286711
H       3.90612891    -1.15583875     3.04837743
H       5.18184974    -0.08291610     3.64617977
16 
# or17: geometry number 14. H8-N10 distance: 2.5 
C       0.90753803     0.65727593    -0.12236667
C       0.13745650     1.95103719     0.05655409
N      -1.11675967     1.82397883     0.57643004
O       0.63849405     3.03450332    -0.17236048
H      -1.64994508     2.65990243     0.74945495
H      -1.50016695     0.93652688     0.84513505
H       1.42773996     0.52290040    -1.06962267
H       1.66182222     0.70703685     0.66477857
H       0.26121131    -0.20105875     0.06241740
N       3.37214446     0.84516105     2.48294235
H       2.83036846     1.01264317     3.32253021
H       3.86045080     1.70745720     2.27188300
C       4.32060099    -0.24945206     2.68894104
H       4.88102279    -0.41723066     1.76741400
H       3.76930313    -1.16688869     2.90292432
H       5.04502396    -0.09396604     3.50072666
16 
# or17: geometry number 15. H8-N10 distance: 2.4 
C       0.90753803     0.65727593    -0.12236667
C       0.13745650     1.95103719     0.05655409
N      -1.11675967     1.82397883     0.57643004
O       0.63849405     3.03450332    -0.17236048
H      -1.64994508     2.65990243     0.74945495
H      -1.50016695     0.93652688     0.84513505
H       1.42773996     0.52290040    -1.06962267
H       1.66182222     0.70703685     0.66477857
H       0.26121131    -0.20105875     0.06241740
N       3.30373157     0.83963608     2.41021580
H       2.76195557     1.00711820     3.24980366
H       3.79203791     1.70193223     2.19915645
C       4.25218810    -0.25497703     2.61621449
H       4.81260990    -0.42275563     1.69468745
H       3.70089024    -1.17241366     2.83019777
H       4.97661107    -0.09949101     3.42800011
16 
# or17: geometry number 16. H8-N10 distance: 2.3 
C       0.90753803     0.65727593    -0.12236667
C       0.13745650     1.95103719     0.05655409
N      -1.11675967     1.82397883     0.57643004
O       0.63849405     3.03450332    -0.17236048
H      -1.64994508     2.65990243     0.74945495
H      -1.50016695     0.93652688     0.84513505
H       1.42773996     0.52290040    -1.06962267
H       1.66182222     0.70703685     0.66477857
H       0.26121131    -0.20105875     0.06241740
N       3.23531868     0.83411112     2.33748925
H       2.69354268     1.00159324     3.17707711
H       3.72362502     1.69640727     2.12642990
C       4.18377521    -0.26050199     2.54348794
H       4.74419701    -0.42828059     1.62196090
H       3.63247735    -1.17793862     2.75747122
H       4.90819818    -0.10501597     3.35527356
16 
# or17: geometry number 17. H8-N10 distance: 2.2 
C       0.90753803     0.65727593    -0.12236667
C       0.13745650     1.95103719     0.05655409
N      -1.11675967     1.82397883     0.57643004
O       0.63849405     3.03450332    -0.17236048
H      -1.64994508     2.65990243     0.74945495
H      -1.50016695     0.93652688     0.84513505
H       1.42773996     0.52290040    -1.06962267
H       1.66182222     0.70703685     0.66477857
H       0.26121131    -0.20105875     0.06241740
N       3.16690579     0.82858615     2.26476270
H       2.62512979     0.99606827     3.10435056
H       3.65521213     1.69088230     2.05370335
C       4.11536232    -0.26602696     2.47076139
H       4.67578412    -0.43380556     1.54923435
H       3.56406446    -1.18346359     2.68474467
H       4.83978529    -0.11054094     3.28254701
16 
# or17: geometry number 18. H8-N10 distance: 2.1 
C       0.90753803     0.65727593    -0.12236667
C       0.13745650     1.95103719     0.05655409
N      -1.11675967     1.82397883     0.57643004
O       0.63849405     3.03450332    -0.17236048
H      -1.64994508     2.65990243     0.74945495
H      -1.50016695     0.93652688     0.84513505
H       1.42773996     0.52290040    -1.06962267
H       1.66182222     0.70703685     0.66477857
H       0.26121131    -0.20105875     0.06241740
N       3.09849290     0.82306118     2.19203615
H       2.55671690     0.99054330     3.03162401
H       3.58679924     1.68535733     1.98097680
C       4.04694943    -0.27155193     2.39803484
H       4.60737123    -0.43933053     1.47650780
H       3.49565157    -1.18898856     2.61201812
H       4.77137240    -0.11606591     3.20982046
16 
# or17: geometry number 19. H8-N10 distance: 2.05 
C       0.90753803     0.65727593    -0.12236667
C       0.13745650     1.95103719     0.05655409
N      -1.11675967     1.82397883     0.57643004
O       0.63849405     3.03450332    -0.17236048
H      -1.64994508     2.65990243     0.74945495
H      -1.50016695     0.93652688     0.84513505
H       1.42773996     0.52290040    -1.06962267
H       1.66182222     0.70703685     0.66477857
H       0.26121131    -0.20105875     0.06241740
N       3.06428646     0.82029869     2.15567287
H       2.52251046     0.98778081     2.99526073
H       3.55259280     1.68259484     1.94461352
C       4.01274299    -0.27431442     2.36167156
H       4.57316479    -0.44209302     1.44014452
H       3.46144513    -1.19175105     2.57565484
H       4.73716596    -0.11882840     3.17345718
16 
# or17: geometry number 20. H8-N10 distance: 2.0 
C       0.90753803     0.65727593    -0.12236667
C       0.13745650     1.95103719     0.05655409
N      -1.11675967     1.82397883     0.57643004
O       0.63849405     3.03450332    -0.17236048
H      -1.64994508     2.65990243     0.74945495
H      -1.50016695     0.93652688     0.84513505
H       1.42773996     0.52290040    -1.06962267
H       1.66182222     0.70703685     0.66477857
H       0.26121131    -0.20105875     0.06241740
N       3.03008001     0.81753621     2.11930960
H       2.48830401     0.98501833     2.95889746
H       3.51838635     1.67983236     1.90825025
C       3.97853654    -0.27707690     2.32530829
H       4.53895834    -0.44485550     1.40378125
H       3.42723868    -1.19451353     2.53929157
H       4.70295951    -0.12159088     3.13709391
16 
# or17: geometry number 21. H8-N10 distance: 1.95 
C       0.90753803     0.65727593    -0.12236667
C       0.13745650     1.95103719     0.05655409
N      -1.11675967     1.82397883     0.57643004
O       0.63849405     3.03450332    -0.17236048
H      -1.64994508     2.65990243     0.74945495
H      -1.50016695     0.93652688     0.84513505
H       1.42773996     0.52290040    -1.06962267
H       1.66182222     0.70703685     0.66477857
H       0.26121131    -0.20105875     0.06241740
N       2.99587357     0.81477373     2.08294632
H       2.45409757     0.98225585     2.92253418
H       3.48417991     1.67706988     1.87188697
C       3.94433010    -0.27983938     2.28894501
H       4.50475190    -0.44761798     1.36741797
H       3.39303224    -1.19727601     2.50292829
H       4.66875307    -0.12435336     3.10073063
16 
# or17: geometry number 22. H8-N10 distance: 1.9 
C       0.90753803     0.65727593    -0.12236667
C       0.13745650     1.95103719     0.05655409
N      -1.11675967     1.82397883     0.57643004
O       0.63849405     3.03450332    -0.17236048
H      -1.64994508     2.65990243     0.74945495
H      -1.50016695     0.93652688     0.84513505
H       1.42773996     0.52290040    -1.06962267
H       1.66182222     0.70703685     0.66477857
H       0.26121131    -0.20105875     0.06241740
N       2.96166712     0.81201124     2.04658305
H       2.41989112     0.97949336     2.88617091
H       3.44997346     1.67430739     1.83552370
C       3.91012365    -0.28260187     2.25258174
H       4.47054545    -0.45038047     1.33105470
H       3.35882579    -1.20003850     2.46656502
H       4.63454662    -0.12711585     3.06436736
16 
# or17: geometry number 23. H8-N10 distance: 1.85 
C       0.90753803     0.65727593    -0.12236667
C       0.13745650     1.95103719     0.05655409
N      -1.11675967     1.82397883     0.57643004
O       0.63849405     3.03450332    -0.17236048
H      -1.64994508     2.65990243     0.74945495
H      -1.50016695     0.93652688     0.84513505
H       1.42773996     0.52290040    -1.06962267
H       1.66182222     0.70703685     0.66477857
H       0.26121131    -0.20105875     0.06241740
N       2.92746068     0.80924876     2.01021977
H       2.38568468     0.97673088     2.84980763
H       3.41576702     1.67154491     1.79916042
C       3.87591721    -0.28536435     2.21621846
H       4.43633901    -0.45314295     1.29469142
H       3.32461935    -1.20280098     2.43020174
H       4.60034018    -0.12987833     3.02800408
16 
# or17: geometry number 24. H8-N10 distance: 1.8 
C       0.90753803     0.65727593    -0.12236667
C       0.13745650     1.95103719     0.05655409
N      -1.11675967     1.82397883     0.57643004
O       0.63849405     3.03450332    -0.17236048
H      -1.64994508     2.65990243     0.74945495
H      -1.50016695     0.93652688     0.84513505
H       1.42773996     0.52290040    -1.06962267
H       1.66182222     0.70703685     0.66477857
H       0.26121131    -0.20105875     0.06241740
N       2.89325423     0.80648627     1.97385649
H       2.35147823     0.97396839     2.81344435
H       3.38156057     1.66878242     1.76279714
C       3.84171076    -0.28812684     2.17985518
H       4.40213256    -0.45590544     1.25832814
H       3.29041290    -1.20556347     2.39383846
H       4.56613373    -0.13264082     2.99164080
16 
# or17: geometry number 25. H8-N10 distance: 1.75 
C       0.90753803     0.65727593    -0.12236667
C       0.13745650     1.95103719     0.05655409
N      -1.11675967     1.82397883     0.57643004
O       0.63849405     3.03450332    -0.17236048
H      -1.64994508     2.65990243     0.74945495
H      -1.50016695     0.93652688     0.84513505
H       1.42773996     0.52290040    -1.06962267
H       1.66182222     0.70703685     0.66477857
H       0.26121131    -0.20105875     0.06241740
N       2.85904779     0.80372379     1.93749322
H       2.31727179     0.97120591     2.77708108
H       3.34735413     1.66601994     1.72643387
C       3.80750432    -0.29088932     2.14349191
H       4.36792612    -0.45866792     1.22196487
H       3.25620646    -1.20832595     2.35747519
H       4.53192729    -0.13540330     2.95527753
16 
# or17: geometry number 26. H8-N10 distance: 1.7 
C       0.90753803     0.65727593    -0.12236667
C       0.13745650     1.95103719     0.05655409
N      -1.11675967     1.82397883     0.57643004
O       0.63849405     3.03450332    -0.17236048
H      -1.64994508     2.65990243     0.74945495
H      -1.50016695     0.93652688     0.84513505
H       1.42773996     0.52290040    -1.06962267
H       1.66182222     0.70703685     0.66477857
H       0.26121131    -0.20105875     0.06241740
N       2.82484134     0.80096131     1.90112994
H       2.28306534     0.96844343     2.74071780
H       3.31314768     1.66325746     1.69007059
C       3.77329787    -0.29365180     2.10712863
H       4.33371967    -0.46143040     1.18560159
H       3.22200001    -1.21108843     2.32111191
H       4.49772084    -0.13816578     2.91891425
16 
# or17: geometry number 27. H8-N10 distance: 1.65 
C       0.90753803     0.65727593    -0.12236667
C       0.13745650     1.95103719     0.05655409
N      -1.11675967     1.82397883     0.57643004
O       0.63849405     3.03450332    -0.17236048
H      -1.64994508     2.65990243     0.74945495
H      -1.50016695     0.93652688     0.84513505
H       1.42773996     0.52290040    -1.06962267
H       1.66182222     0.70703685     0.66477857
H       0.26121131    -0.20105875     0.06241740
N       2.79063490     0.79819882     1.86476667
H       2.24885890     0.96568094     2.70435453
H       3.27894124     1.66049497     1.65370732
C       3.73909143    -0.29641429     2.07076536
H       4.29951323    -0.46419289     1.14923832
H       3.18779357    -1.21385092     2.28474864
H       4.46351440    -0.14092827     2.88255098
16 
# or17: geometry number 28. H8-N10 distance: 1.6 
C       0.90753803     0.65727593    -0.12236667
C       0.13745650     1.95103719     0.05655409
N      -1.11675967     1.82397883     0.57643004
O       0.63849405     3.03450332    -0.17236048
H      -1.64994508     2.65990243     0.74945495
H      -1.50016695     0.93652688     0.84513505
H       1.42773996     0.52290040    -1.06962267
H       1.66182222     0.70703685     0.66477857
H       0.26121131    -0.20105875     0.06241740
N       2.75642845     0.79543634     1.82840339
H       2.21465245     0.96291846     2.66799125
H       3.24473479     1.65773249     1.61734404
C       3.70488498    -0.29917677     2.03440208
H       4.26530678    -0.46695537     1.11287504
H       3.15358712    -1.21661340     2.24838536
H       4.42930795    -0.14369075     2.84618770
16 
# or17: geometry number 29. H8-N10 distance: 1.55 
C       0.90753803     0.65727593    -0.12236667
C       0.13745650     1.95103719     0.05655409
N      -1.11675967     1.82397883     0.57643004
O       0.63849405     3.03450332    -0.17236048
H      -1.64994508     2.65990243     0.74945495
H      -1.50016695     0.93652688     0.84513505
H       1.42773996     0.52290040    -1.06962267
H       1.66182222     0.70703685     0.66477857
H       0.26121131    -0.20105875     0.06241740
N       2.72222201     0.79267385     1.79204012
H       2.18044601     0.96015597     2.63162798
H       3.21052835     1.65497000     1.58098077
C       3.67067854    -0.30193926     1.99803881
H       4.23110034    -0.46971786     1.07651177
H       3.11938068    -1.21937589     2.21202209
H       4.39510151    -0.14645324     2.80982443
16 
# or17: geometry number 30. H8-N10 distance: 1.5 
C       0.90753803     0.65727593    -0.12236667
C       0.13745650     1.95103719     0.05655409
N      -1.11675967     1.82397883     0.57643004
O       0.63849405     3.03450332    -0.17236048
H      -1.64994508     2.65990243     0.74945495
H      -1.50016695     0.93652688     0.84513505
H       1.42773996     0.52290040    -1.06962267
H       1.66182222     0.70703685     0.66477857
H       0.26121131    -0.20105875     0.06241740
N       2.68801556     0.78991137     1.75567684
H       2.14623956     0.95739349     2.59526470
H       3.17632190     1.65220752     1.54461749
C       3.63647209    -0.30470174     1.96167553
H       4.19689389    -0.47248034     1.04014849
H       3.08517423    -1.22213837     2.17565881
H       4.36089506    -0.14921572     2.77346115
