16 
# or18: geometry number 1. H8-C13 distance: 10 
C       1.06989488     0.15199404    -0.23513998
C       0.29981335     1.44575530    -0.05621921
N      -0.95440282     1.31869694     0.46365674
O       0.80085089     2.52922143    -0.28513378
H      -1.48758824     2.15462054     0.63668165
H      -1.33781011     0.43124499     0.73236174
H       1.59009681     0.01761851    -1.18239597
H       1.82417906     0.20175496     0.55200527
H       0.42356815    -0.70634064    -0.05035591
N       9.04744819     0.15963790     9.44984176
H       8.93069864    -0.64001020    10.06091600
H      10.00586544     0.14084125     9.12177646
C       8.11421325     0.09207695     8.32525688
H       8.25188034     0.96978159     7.69113017
H       7.09136605     0.12544525     8.70483337
H       8.20987259    -0.80053040     7.69117341
16 
# or18: geometry number 2. H8-C13 distance: 9 
C       1.06989488     0.15199404    -0.23513998
C       0.29981335     1.44575530    -0.05621921
N      -0.95440282     1.31869694     0.46365674
O       0.80085089     2.52922143    -0.28513378
H      -1.48758824     2.15462054     0.63668165
H      -1.33781011     0.43124499     0.73236174
H       1.59009681     0.01761851    -1.18239597
H       1.82417906     0.20175496     0.55200527
H       0.42356815    -0.70634064    -0.05035591
N       8.41844477     0.17060570     8.67251660
H       8.30169522    -0.62904240     9.28359084
H       9.37686202     0.15180905     8.34445130
C       7.48520983     0.10304475     7.54793172
H       7.62287692     0.98074939     6.91380501
H       6.46236263     0.13641305     7.92750821
H       7.58086917    -0.78956260     6.91384825
16 
# or18: geometry number 3. H8-C13 distance: 8 
C       1.06989488     0.15199404    -0.23513998
C       0.29981335     1.44575530    -0.05621921
N      -0.95440282     1.31869694     0.46365674
O       0.80085089     2.52922143    -0.28513378
H      -1.48758824     2.15462054     0.63668165
H      -1.33781011     0.43124499     0.73236174
H       1.59009681     0.01761851    -1.18239597
H       1.82417906     0.20175496     0.55200527
H       0.42356815    -0.70634064    -0.05035591
N       7.78944135     0.18157351     7.89519144
H       7.67269180    -0.61807459     8.50626568
H       8.74785860     0.16277686     7.56712614
C       6.85620641     0.11401256     6.77060656
H       6.99387350     0.99171720     6.13647985
H       5.83335921     0.14738086     7.15018305
H       6.95186575    -0.77859479     6.13652309
16 
# or18: geometry number 4. H8-C13 distance: 7 
C       1.06989488     0.15199404    -0.23513998
C       0.29981335     1.44575530    -0.05621921
N      -0.95440282     1.31869694     0.46365674
O       0.80085089     2.52922143    -0.28513378
H      -1.48758824     2.15462054     0.63668165
H      -1.33781011     0.43124499     0.73236174
H       1.59009681     0.01761851    -1.18239597
H       1.82417906     0.20175496     0.55200527
H       0.42356815    -0.70634064    -0.05035591
N       7.16043793     0.19254131     7.11786628
H       7.04368838    -0.60710679     7.72894052
H       8.11885518     0.17374466     6.78980098
C       6.22720299     0.12498036     5.99328140
H       6.36487008     1.00268500     5.35915469
H       5.20435579     0.15834866     6.37285789
H       6.32286233    -0.76762699     5.35919793
16 
# or18: geometry number 5. H8-C13 distance: 6 
C       1.06989488     0.15199404    -0.23513998
C       0.29981335     1.44575530    -0.05621921
N      -0.95440282     1.31869694     0.46365674
O       0.80085089     2.52922143    -0.28513378
H      -1.48758824     2.15462054     0.63668165
H      -1.33781011     0.43124499     0.73236174
H       1.59009681     0.01761851    -1.18239597
H       1.82417906     0.20175496     0.55200527
H       0.42356815    -0.70634064    -0.05035591
N       6.53143451     0.20350911     6.34054112
H       6.41468496    -0.59613899     6.95161536
H       7.48985176     0.18471246     6.01247582
C       5.59819957     0.13594816     5.21595624
H       5.73586666     1.01365280     4.58182953
H       4.57535237     0.16931646     5.59553273
H       5.69385891    -0.75665919     4.58187277
16 
# or18: geometry number 6. H8-C13 distance: 5 
C       1.06989488     0.15199404    -0.23513998
C       0.29981335     1.44575530    -0.05621921
N      -0.95440282     1.31869694     0.46365674
O       0.80085089     2.52922143    -0.28513378
H      -1.48758824     2.15462054     0.63668165
H      -1.33781011     0.43124499     0.73236174
H       1.59009681     0.01761851    -1.18239597
H       1.82417906     0.20175496     0.55200527
H       0.42356815    -0.70634064    -0.05035591
N       5.90243110     0.21447691     5.56321596
H       5.78568155    -0.58517119     6.17429020
H       6.86084835     0.19568026     5.23515066
C       4.96919616     0.14691596     4.43863108
H       5.10686325     1.02462060     3.80450437
H       3.94634896     0.18028426     4.81820757
H       5.06485550    -0.74569139     3.80454761
16 
# or18: geometry number 7. H8-C13 distance: 4.5 
C       1.06989488     0.15199404    -0.23513998
C       0.29981335     1.44575530    -0.05621921
N      -0.95440282     1.31869694     0.46365674
O       0.80085089     2.52922143    -0.28513378
H      -1.48758824     2.15462054     0.63668165
H      -1.33781011     0.43124499     0.73236174
H       1.59009681     0.01761851    -1.18239597
H       1.82417906     0.20175496     0.55200527
H       0.42356815    -0.70634064    -0.05035591
N       5.58792939     0.21996081     5.17455338
H       5.47117984    -0.57968729     5.78562762
H       6.54634664     0.20116416     4.84648808
C       4.65469445     0.15239986     4.04996850
H       4.79236154     1.03010450     3.41584179
H       3.63184725     0.18576816     4.42954499
H       4.75035379    -0.74020749     3.41588503
16 
# or18: geometry number 8. H8-C13 distance: 4 
C       1.06989488     0.15199404    -0.23513998
C       0.29981335     1.44575530    -0.05621921
N      -0.95440282     1.31869694     0.46365674
O       0.80085089     2.52922143    -0.28513378
H      -1.48758824     2.15462054     0.63668165
H      -1.33781011     0.43124499     0.73236174
H       1.59009681     0.01761851    -1.18239597
H       1.82417906     0.20175496     0.55200527
H       0.42356815    -0.70634064    -0.05035591
N       5.27342768     0.22544471     4.78589079
H       5.15667813    -0.57420339     5.39696503
H       6.23184493     0.20664806     4.45782549
C       4.34019274     0.15788376     3.66130591
H       4.47785983     1.03558840     3.02717920
H       3.31734554     0.19125206     4.04088240
H       4.43585208    -0.73472359     3.02722244
16 
# or18: geometry number 9. H8-C13 distance: 3.7 
C       1.06989488     0.15199404    -0.23513998
C       0.29981335     1.44575530    -0.05621921
N      -0.95440282     1.31869694     0.46365674
O       0.80085089     2.52922143    -0.28513378
H      -1.48758824     2.15462054     0.63668165
H      -1.33781011     0.43124499     0.73236174
H       1.59009681     0.01761851    -1.18239597
H       1.82417906     0.20175496     0.55200527
H       0.42356815    -0.70634064    -0.05035591
N       5.08472665     0.22873505     4.55269325
H       4.96797710    -0.57091305     5.16376749
H       6.04314390     0.20993840     4.22462795
C       4.15149171     0.16117410     3.42810837
H       4.28915880     1.03887874     2.79398166
H       3.12864451     0.19454240     3.80768486
H       4.24715105    -0.73143325     2.79402490
16 
# or18: geometry number 10. H8-C13 distance: 3.4 
C       1.06989488     0.15199404    -0.23513998
C       0.29981335     1.44575530    -0.05621921
N      -0.95440282     1.31869694     0.46365674
O       0.80085089     2.52922143    -0.28513378
H      -1.48758824     2.15462054     0.63668165
H      -1.33781011     0.43124499     0.73236174
H       1.59009681     0.01761851    -1.18239597
H       1.82417906     0.20175496     0.55200527
H       0.42356815    -0.70634064    -0.05035591
N       4.89602562     0.23202539     4.31949570
H       4.77927607    -0.56762271     4.93056994
H       5.85444287     0.21322874     3.99143040
C       3.96279068     0.16446444     3.19491082
H       4.10045777     1.04216908     2.56078411
H       2.93994348     0.19783274     3.57448731
H       4.05845002    -0.72814291     2.56082735
16 
# or18: geometry number 11. H8-C13 distance: 3.1 
C       1.06989488     0.15199404    -0.23513998
C       0.29981335     1.44575530    -0.05621921
N      -0.95440282     1.31869694     0.46365674
O       0.80085089     2.52922143    -0.28513378
H      -1.48758824     2.15462054     0.63668165
H      -1.33781011     0.43124499     0.73236174
H       1.59009681     0.01761851    -1.18239597
H       1.82417906     0.20175496     0.55200527
H       0.42356815    -0.70634064    -0.05035591
N       4.70732460     0.23531573     4.08629815
H       4.59057505    -0.56433237     4.69737239
H       5.66574185     0.21651908     3.75823285
C       3.77408966     0.16775478     2.96171327
H       3.91175675     1.04545942     2.32758656
H       2.75124246     0.20112308     3.34128976
H       3.86974900    -0.72485257     2.32762980
16 
# or18: geometry number 12. H8-C13 distance: 2.9 
C       1.06989488     0.15199404    -0.23513998
C       0.29981335     1.44575530    -0.05621921
N      -0.95440282     1.31869694     0.46365674
O       0.80085089     2.52922143    -0.28513378
H      -1.48758824     2.15462054     0.63668165
H      -1.33781011     0.43124499     0.73236174
H       1.59009681     0.01761851    -1.18239597
H       1.82417906     0.20175496     0.55200527
H       0.42356815    -0.70634064    -0.05035591
N       4.58152392     0.23750929     3.93083312
H       4.46477437    -0.56213881     4.54190736
H       5.53994117     0.21871264     3.60276782
C       3.64828898     0.16994834     2.80624824
H       3.78595607     1.04765298     2.17212153
H       2.62544178     0.20331664     3.18582473
H       3.74394832    -0.72265901     2.17216477
16 
# or18: geometry number 13. H8-C13 distance: 2.7 
C       1.06989488     0.15199404    -0.23513998
C       0.29981335     1.44575530    -0.05621921
N      -0.95440282     1.31869694     0.46365674
O       0.80085089     2.52922143    -0.28513378
H      -1.48758824     2.15462054     0.63668165
H      -1.33781011     0.43124499     0.73236174
H       1.59009681     0.01761851    -1.18239597
H       1.82417906     0.20175496     0.55200527
H       0.42356815    -0.70634064    -0.05035591
N       4.45572323     0.23970285     3.77536809
H       4.33897368    -0.55994525     4.38644233
H       5.41414048     0.22090620     3.44730279
C       3.52248829     0.17214190     2.65078321
H       3.66015538     1.04984654     2.01665650
H       2.49964109     0.20551020     3.03035970
H       3.61814763    -0.72046545     2.01669974
16 
# or18: geometry number 14. H8-C13 distance: 2.5 
C       1.06989488     0.15199404    -0.23513998
C       0.29981335     1.44575530    -0.05621921
N      -0.95440282     1.31869694     0.46365674
O       0.80085089     2.52922143    -0.28513378
H      -1.48758824     2.15462054     0.63668165
H      -1.33781011     0.43124499     0.73236174
H       1.59009681     0.01761851    -1.18239597
H       1.82417906     0.20175496     0.55200527
H       0.42356815    -0.70634064    -0.05035591
N       4.32992255     0.24189641     3.61990305
H       4.21317300    -0.55775169     4.23097729
H       5.28833980     0.22309976     3.29183775
C       3.39668761     0.17433546     2.49531817
H       3.53435470     1.05204010     1.86119146
H       2.37384041     0.20770376     2.87489466
H       3.49234695    -0.71827189     1.86123470
16 
# or18: geometry number 15. H8-C13 distance: 2.4 
C       1.06989488     0.15199404    -0.23513998
C       0.29981335     1.44575530    -0.05621921
N      -0.95440282     1.31869694     0.46365674
O       0.80085089     2.52922143    -0.28513378
H      -1.48758824     2.15462054     0.63668165
H      -1.33781011     0.43124499     0.73236174
H       1.59009681     0.01761851    -1.18239597
H       1.82417906     0.20175496     0.55200527
H       0.42356815    -0.70634064    -0.05035591
N       4.26702221     0.24299319     3.54217054
H       4.15027266    -0.55665491     4.15324478
H       5.22543946     0.22419654     3.21410524
C       3.33378727     0.17543224     2.41758566
H       3.47145436     1.05313688     1.78345895
H       2.31094007     0.20880054     2.79716215
H       3.42944661    -0.71717511     1.78350219
16 
# or18: geometry number 16. H8-C13 distance: 2.3 
C       1.06989488     0.15199404    -0.23513998
C       0.29981335     1.44575530    -0.05621921
N      -0.95440282     1.31869694     0.46365674
O       0.80085089     2.52922143    -0.28513378
H      -1.48758824     2.15462054     0.63668165
H      -1.33781011     0.43124499     0.73236174
H       1.59009681     0.01761851    -1.18239597
H       1.82417906     0.20175496     0.55200527
H       0.42356815    -0.70634064    -0.05035591
N       4.20412186     0.24408997     3.46443802
H       4.08737231    -0.55555813     4.07551226
H       5.16253911     0.22529332     3.13637272
C       3.27088692     0.17652902     2.33985314
H       3.40855401     1.05423366     1.70572643
H       2.24803972     0.20989732     2.71942963
H       3.36654626    -0.71607833     1.70576967
16 
# or18: geometry number 17. H8-C13 distance: 2.2 
C       1.06989488     0.15199404    -0.23513998
C       0.29981335     1.44575530    -0.05621921
N      -0.95440282     1.31869694     0.46365674
O       0.80085089     2.52922143    -0.28513378
H      -1.48758824     2.15462054     0.63668165
H      -1.33781011     0.43124499     0.73236174
H       1.59009681     0.01761851    -1.18239597
H       1.82417906     0.20175496     0.55200527
H       0.42356815    -0.70634064    -0.05035591
N       4.14122152     0.24518675     3.38670550
H       4.02447197    -0.55446135     3.99777974
H       5.09963877     0.22639010     3.05864020
C       3.20798658     0.17762580     2.26212062
H       3.34565367     1.05533044     1.62799391
H       2.18513938     0.21099410     2.64169711
H       3.30364592    -0.71498155     1.62803715
16 
# or18: geometry number 18. H8-C13 distance: 2.15 
C       1.06989488     0.15199404    -0.23513998
C       0.29981335     1.44575530    -0.05621921
N      -0.95440282     1.31869694     0.46365674
O       0.80085089     2.52922143    -0.28513378
H      -1.48758824     2.15462054     0.63668165
H      -1.33781011     0.43124499     0.73236174
H       1.59009681     0.01761851    -1.18239597
H       1.82417906     0.20175496     0.55200527
H       0.42356815    -0.70634064    -0.05035591
N       4.10977135     0.24573514     3.34783925
H       3.99302180    -0.55391296     3.95891349
H       5.06818860     0.22693849     3.01977395
C       3.17653641     0.17817419     2.22325437
H       3.31420350     1.05587883     1.58912766
H       2.15368921     0.21154249     2.60283086
H       3.27219575    -0.71443316     1.58917090
16 
# or18: geometry number 19. H8-C13 distance: 2.1 
C       1.06989488     0.15199404    -0.23513998
C       0.29981335     1.44575530    -0.05621921
N      -0.95440282     1.31869694     0.46365674
O       0.80085089     2.52922143    -0.28513378
H      -1.48758824     2.15462054     0.63668165
H      -1.33781011     0.43124499     0.73236174
H       1.59009681     0.01761851    -1.18239597
H       1.82417906     0.20175496     0.55200527
H       0.42356815    -0.70634064    -0.05035591
N       4.07832118     0.24628353     3.30897299
H       3.96157163    -0.55336457     3.92004723
H       5.03673843     0.22748688     2.98090769
C       3.14508624     0.17872258     2.18438811
H       3.28275333     1.05642722     1.55026140
H       2.12223904     0.21209088     2.56396460
H       3.24074558    -0.71388477     1.55030464
16 
# or18: geometry number 20. H8-C13 distance: 2.05 
C       1.06989488     0.15199404    -0.23513998
C       0.29981335     1.44575530    -0.05621921
N      -0.95440282     1.31869694     0.46365674
O       0.80085089     2.52922143    -0.28513378
H      -1.48758824     2.15462054     0.63668165
H      -1.33781011     0.43124499     0.73236174
H       1.59009681     0.01761851    -1.18239597
H       1.82417906     0.20175496     0.55200527
H       0.42356815    -0.70634064    -0.05035591
N       4.04687101     0.24683192     3.27010673
H       3.93012146    -0.55281618     3.88118097
H       5.00528826     0.22803527     2.94204143
C       3.11363607     0.17927097     2.14552185
H       3.25130316     1.05697561     1.51139514
H       2.09078887     0.21263927     2.52509834
H       3.20929541    -0.71333638     1.51143838
16 
# or18: geometry number 21. H8-C13 distance: 2.0 
C       1.06989488     0.15199404    -0.23513998
C       0.29981335     1.44575530    -0.05621921
N      -0.95440282     1.31869694     0.46365674
O       0.80085089     2.52922143    -0.28513378
H      -1.48758824     2.15462054     0.63668165
H      -1.33781011     0.43124499     0.73236174
H       1.59009681     0.01761851    -1.18239597
H       1.82417906     0.20175496     0.55200527
H       0.42356815    -0.70634064    -0.05035591
N       4.01542084     0.24738031     3.23124047
H       3.89867129    -0.55226779     3.84231471
H       4.97383809     0.22858366     2.90317517
C       3.08218590     0.17981936     2.10665559
H       3.21985299     1.05752400     1.47252888
H       2.05933870     0.21318766     2.48623208
H       3.17784524    -0.71278799     1.47257212
16 
# or18: geometry number 22. H8-C13 distance: 1.95 
C       1.06989488     0.15199404    -0.23513998
C       0.29981335     1.44575530    -0.05621921
N      -0.95440282     1.31869694     0.46365674
O       0.80085089     2.52922143    -0.28513378
H      -1.48758824     2.15462054     0.63668165
H      -1.33781011     0.43124499     0.73236174
H       1.59009681     0.01761851    -1.18239597
H       1.82417906     0.20175496     0.55200527
H       0.42356815    -0.70634064    -0.05035591
N       3.98397067     0.24792870     3.19237421
H       3.86722112    -0.55171940     3.80344845
H       4.94238792     0.22913205     2.86430891
C       3.05073573     0.18036775     2.06778933
H       3.18840282     1.05807239     1.43366262
H       2.02788853     0.21373605     2.44736582
H       3.14639507    -0.71223960     1.43370586
16 
# or18: geometry number 23. H8-C13 distance: 1.9 
C       1.06989488     0.15199404    -0.23513998
C       0.29981335     1.44575530    -0.05621921
N      -0.95440282     1.31869694     0.46365674
O       0.80085089     2.52922143    -0.28513378
H      -1.48758824     2.15462054     0.63668165
H      -1.33781011     0.43124499     0.73236174
H       1.59009681     0.01761851    -1.18239597
H       1.82417906     0.20175496     0.55200527
H       0.42356815    -0.70634064    -0.05035591
N       3.95252050     0.24847709     3.15350796
H       3.83577095    -0.55117101     3.76458220
H       4.91093775     0.22968044     2.82544266
C       3.01928556     0.18091614     2.02892308
H       3.15695265     1.05862078     1.39479637
H       1.99643836     0.21428444     2.40849957
H       3.11494490    -0.71169121     1.39483961
16 
# or18: geometry number 24. H8-C13 distance: 1.85 
C       1.06989488     0.15199404    -0.23513998
C       0.29981335     1.44575530    -0.05621921
N      -0.95440282     1.31869694     0.46365674
O       0.80085089     2.52922143    -0.28513378
H      -1.48758824     2.15462054     0.63668165
H      -1.33781011     0.43124499     0.73236174
H       1.59009681     0.01761851    -1.18239597
H       1.82417906     0.20175496     0.55200527
H       0.42356815    -0.70634064    -0.05035591
N       3.92107033     0.24902548     3.11464170
H       3.80432078    -0.55062262     3.72571594
H       4.87948758     0.23022883     2.78657640
C       2.98783539     0.18146453     1.99005682
H       3.12550248     1.05916917     1.35593011
H       1.96498819     0.21483283     2.36963331
H       3.08349473    -0.71114282     1.35597335
16 
# or18: geometry number 25. H8-C13 distance: 1.8 
C       1.06989488     0.15199404    -0.23513998
C       0.29981335     1.44575530    -0.05621921
N      -0.95440282     1.31869694     0.46365674
O       0.80085089     2.52922143    -0.28513378
H      -1.48758824     2.15462054     0.63668165
H      -1.33781011     0.43124499     0.73236174
H       1.59009681     0.01761851    -1.18239597
H       1.82417906     0.20175496     0.55200527
H       0.42356815    -0.70634064    -0.05035591
N       3.88962015     0.24957387     3.07577544
H       3.77287060    -0.55007423     3.68684968
H       4.84803740     0.23077722     2.74771014
C       2.95638521     0.18201292     1.95119056
H       3.09405230     1.05971756     1.31706385
H       1.93353801     0.21538122     2.33076705
H       3.05204455    -0.71059443     1.31710709
16 
# or18: geometry number 26. H8-C13 distance: 1.75 
C       1.06989488     0.15199404    -0.23513998
C       0.29981335     1.44575530    -0.05621921
N      -0.95440282     1.31869694     0.46365674
O       0.80085089     2.52922143    -0.28513378
H      -1.48758824     2.15462054     0.63668165
H      -1.33781011     0.43124499     0.73236174
H       1.59009681     0.01761851    -1.18239597
H       1.82417906     0.20175496     0.55200527
H       0.42356815    -0.70634064    -0.05035591
N       3.85816998     0.25012226     3.03690918
H       3.74142043    -0.54952584     3.64798342
H       4.81658723     0.23132561     2.70884388
C       2.92493504     0.18256131     1.91232430
H       3.06260213     1.06026595     1.27819759
H       1.90208784     0.21592961     2.29190079
H       3.02059438    -0.71004604     1.27824083
16 
# or18: geometry number 27. H8-C13 distance: 1.7 
C       1.06989488     0.15199404    -0.23513998
C       0.29981335     1.44575530    -0.05621921
N      -0.95440282     1.31869694     0.46365674
O       0.80085089     2.52922143    -0.28513378
H      -1.48758824     2.15462054     0.63668165
H      -1.33781011     0.43124499     0.73236174
H       1.59009681     0.01761851    -1.18239597
H       1.82417906     0.20175496     0.55200527
H       0.42356815    -0.70634064    -0.05035591
N       3.82671981     0.25067065     2.99804292
H       3.70997026    -0.54897745     3.60911716
H       4.78513706     0.23187400     2.66997762
C       2.89348487     0.18310970     1.87345804
H       3.03115196     1.06081434     1.23933133
H       1.87063767     0.21647800     2.25303453
H       2.98914421    -0.70949765     1.23937457
16 
# or18: geometry number 28. H8-C13 distance: 1.65 
C       1.06989488     0.15199404    -0.23513998
C       0.29981335     1.44575530    -0.05621921
N      -0.95440282     1.31869694     0.46365674
O       0.80085089     2.52922143    -0.28513378
H      -1.48758824     2.15462054     0.63668165
H      -1.33781011     0.43124499     0.73236174
H       1.59009681     0.01761851    -1.18239597
H       1.82417906     0.20175496     0.55200527
H       0.42356815    -0.70634064    -0.05035591
N       3.79526964     0.25121904     2.95917667
H       3.67852009    -0.54842906     3.57025091
H       4.75368689     0.23242239     2.63111137
C       2.86203470     0.18365809     1.83459179
H       2.99970179     1.06136273     1.20046508
H       1.83918750     0.21702639     2.21416828
H       2.95769404    -0.70894926     1.20050832
16 
# or18: geometry number 29. H8-C13 distance: 1.6 
C       1.06989488     0.15199404    -0.23513998
C       0.29981335     1.44575530    -0.05621921
N      -0.95440282     1.31869694     0.46365674
O       0.80085089     2.52922143    -0.28513378
H      -1.48758824     2.15462054     0.63668165
H      -1.33781011     0.43124499     0.73236174
H       1.59009681     0.01761851    -1.18239597
H       1.82417906     0.20175496     0.55200527
H       0.42356815    -0.70634064    -0.05035591
N       3.76381947     0.25176743     2.92031041
H       3.64706992    -0.54788067     3.53138465
H       4.72223672     0.23297078     2.59224511
C       2.83058453     0.18420648     1.79572553
H       2.96825162     1.06191112     1.16159882
H       1.80773733     0.21757478     2.17530202
H       2.92624387    -0.70840087     1.16164206
