16 
# or19: geometry number 1. H8-H11 distance: 10 
C       0.53137635     0.64824300    -0.48840952
C      -0.23870518     1.94200426    -0.30948876
N      -1.49292135     1.81494590     0.21038719
O       0.26233237     3.02547039    -0.53840333
H      -2.02610676     2.65086950     0.38341210
H      -1.87632863     0.92749395     0.47909220
H       1.05157828     0.51386747    -1.43566552
H       1.28566054     0.69800392     0.29873572
H      -0.11495037    -0.21009168    -0.30362545
N       9.13710499     0.87102391     8.01757024
H       8.45140445     0.87007799     7.27171963
H       8.62183278     0.87489366     8.88993677
C       9.99804901    -0.30853596     7.93040947
H      10.73406629    -0.27622272     8.73580922
H      10.54901668    -0.28224517     6.98852223
H       9.47596468    -1.27390827     7.98910106
16 
# or19: geometry number 2. H8-H11 distance: 9 
C       0.53137635     0.64824300    -0.48840952
C      -0.23870518     1.94200426    -0.30948876
N      -1.49292135     1.81494590     0.21038719
O       0.26233237     3.02547039    -0.53840333
H      -2.02610676     2.65086950     0.38341210
H      -1.87632863     0.92749395     0.47909220
H       1.05157828     0.51386747    -1.43566552
H       1.28566054     0.69800392     0.29873572
H      -0.11495037    -0.21009168    -0.30362545
N       8.42053060     0.85381650     7.32027185
H       7.73483006     0.85287058     6.57442124
H       7.90525839     0.85768625     8.19263838
C       9.28147462    -0.32574337     7.23311108
H      10.01749190    -0.29343013     8.03851083
H       9.83244229    -0.29945258     6.29122384
H       8.75939029    -1.29111568     7.29180267
16 
# or19: geometry number 3. H8-H11 distance: 8 
C       0.53137635     0.64824300    -0.48840952
C      -0.23870518     1.94200426    -0.30948876
N      -1.49292135     1.81494590     0.21038719
O       0.26233237     3.02547039    -0.53840333
H      -2.02610676     2.65086950     0.38341210
H      -1.87632863     0.92749395     0.47909220
H       1.05157828     0.51386747    -1.43566552
H       1.28566054     0.69800392     0.29873572
H      -0.11495037    -0.21009168    -0.30362545
N       7.70395621     0.83660909     6.62297346
H       7.01825567     0.83566317     5.87712285
H       7.18868400     0.84047884     7.49533999
C       8.56490023    -0.34295078     6.53581269
H       9.30091751    -0.31063754     7.34121244
H       9.11586790    -0.31665999     5.59392545
H       8.04281590    -1.30832309     6.59450428
16 
# or19: geometry number 4. H8-H11 distance: 7 
C       0.53137635     0.64824300    -0.48840952
C      -0.23870518     1.94200426    -0.30948876
N      -1.49292135     1.81494590     0.21038719
O       0.26233237     3.02547039    -0.53840333
H      -2.02610676     2.65086950     0.38341210
H      -1.87632863     0.92749395     0.47909220
H       1.05157828     0.51386747    -1.43566552
H       1.28566054     0.69800392     0.29873572
H      -0.11495037    -0.21009168    -0.30362545
N       6.98738182     0.81940169     5.92567507
H       6.30168128     0.81845577     5.17982446
H       6.47210961     0.82327144     6.79804160
C       7.84832584    -0.36015818     5.83851430
H       8.58434312    -0.32784494     6.64391405
H       8.39929351    -0.33386739     4.89662706
H       7.32624151    -1.32553049     5.89720589
16 
# or19: geometry number 5. H8-H11 distance: 6 
C       0.53137635     0.64824300    -0.48840952
C      -0.23870518     1.94200426    -0.30948876
N      -1.49292135     1.81494590     0.21038719
O       0.26233237     3.02547039    -0.53840333
H      -2.02610676     2.65086950     0.38341210
H      -1.87632863     0.92749395     0.47909220
H       1.05157828     0.51386747    -1.43566552
H       1.28566054     0.69800392     0.29873572
H      -0.11495037    -0.21009168    -0.30362545
N       6.27080743     0.80219428     5.22837668
H       5.58510689     0.80124836     4.48252607
H       5.75553522     0.80606403     6.10074321
C       7.13175145    -0.37736559     5.14121591
H       7.86776873    -0.34505235     5.94661566
H       7.68271912    -0.35107480     4.19932867
H       6.60966712    -1.34273790     5.19990750
16 
# or19: geometry number 6. H8-H11 distance: 5 
C       0.53137635     0.64824300    -0.48840952
C      -0.23870518     1.94200426    -0.30948876
N      -1.49292135     1.81494590     0.21038719
O       0.26233237     3.02547039    -0.53840333
H      -2.02610676     2.65086950     0.38341210
H      -1.87632863     0.92749395     0.47909220
H       1.05157828     0.51386747    -1.43566552
H       1.28566054     0.69800392     0.29873572
H      -0.11495037    -0.21009168    -0.30362545
N       5.55423304     0.78498687     4.53107829
H       4.86853250     0.78404095     3.78522768
H       5.03896083     0.78885662     5.40344482
C       6.41517706    -0.39457300     4.44391752
H       7.15119434    -0.36225976     5.24931727
H       6.96614473    -0.36828221     3.50203028
H       5.89309273    -1.35994531     4.50260911
16 
# or19: geometry number 7. H8-H11 distance: 4.5 
C       0.53137635     0.64824300    -0.48840952
C      -0.23870518     1.94200426    -0.30948876
N      -1.49292135     1.81494590     0.21038719
O       0.26233237     3.02547039    -0.53840333
H      -2.02610676     2.65086950     0.38341210
H      -1.87632863     0.92749395     0.47909220
H       1.05157828     0.51386747    -1.43566552
H       1.28566054     0.69800392     0.29873572
H      -0.11495037    -0.21009168    -0.30362545
N       5.19594584     0.77638317     4.18242909
H       4.51024530     0.77543725     3.43657848
H       4.68067363     0.78025292     5.05479562
C       6.05688986    -0.40317670     4.09526832
H       6.79290714    -0.37086346     4.90066807
H       6.60785753    -0.37688591     3.15338108
H       5.53480553    -1.36854901     4.15395991
16 
# or19: geometry number 8. H8-H11 distance: 4 
C       0.53137635     0.64824300    -0.48840952
C      -0.23870518     1.94200426    -0.30948876
N      -1.49292135     1.81494590     0.21038719
O       0.26233237     3.02547039    -0.53840333
H      -2.02610676     2.65086950     0.38341210
H      -1.87632863     0.92749395     0.47909220
H       1.05157828     0.51386747    -1.43566552
H       1.28566054     0.69800392     0.29873572
H      -0.11495037    -0.21009168    -0.30362545
N       4.83765865     0.76777947     3.83377990
H       4.15195811     0.76683355     3.08792929
H       4.32238644     0.77164922     4.70614643
C       5.69860267    -0.41178040     3.74661913
H       6.43461995    -0.37946716     4.55201888
H       6.24957034    -0.38548961     2.80473189
H       5.17651834    -1.37715271     3.80531072
16 
# or19: geometry number 9. H8-H11 distance: 3.7 
C       0.53137635     0.64824300    -0.48840952
C      -0.23870518     1.94200426    -0.30948876
N      -1.49292135     1.81494590     0.21038719
O       0.26233237     3.02547039    -0.53840333
H      -2.02610676     2.65086950     0.38341210
H      -1.87632863     0.92749395     0.47909220
H       1.05157828     0.51386747    -1.43566552
H       1.28566054     0.69800392     0.29873572
H      -0.11495037    -0.21009168    -0.30362545
N       4.62268633     0.76261724     3.62459038
H       3.93698579     0.76167132     2.87873977
H       4.10741412     0.76648699     4.49695691
C       5.48363035    -0.41694263     3.53742961
H       6.21964763    -0.38462939     4.34282936
H       6.03459802    -0.39065184     2.59554237
H       4.96154602    -1.38231494     3.59612120
16 
# or19: geometry number 10. H8-H11 distance: 3.4 
C       0.53137635     0.64824300    -0.48840952
C      -0.23870518     1.94200426    -0.30948876
N      -1.49292135     1.81494590     0.21038719
O       0.26233237     3.02547039    -0.53840333
H      -2.02610676     2.65086950     0.38341210
H      -1.87632863     0.92749395     0.47909220
H       1.05157828     0.51386747    -1.43566552
H       1.28566054     0.69800392     0.29873572
H      -0.11495037    -0.21009168    -0.30362545
N       4.40771401     0.75745502     3.41540086
H       3.72201347     0.75650910     2.66955025
H       3.89244180     0.76132477     4.28776739
C       5.26865803    -0.42210485     3.32824009
H       6.00467531    -0.38979161     4.13363984
H       5.81962570    -0.39581406     2.38635285
H       4.74657370    -1.38747716     3.38693168
16 
# or19: geometry number 11. H8-H11 distance: 3.1 
C       0.53137635     0.64824300    -0.48840952
C      -0.23870518     1.94200426    -0.30948876
N      -1.49292135     1.81494590     0.21038719
O       0.26233237     3.02547039    -0.53840333
H      -2.02610676     2.65086950     0.38341210
H      -1.87632863     0.92749395     0.47909220
H       1.05157828     0.51386747    -1.43566552
H       1.28566054     0.69800392     0.29873572
H      -0.11495037    -0.21009168    -0.30362545
N       4.19274169     0.75229280     3.20621134
H       3.50704115     0.75134688     2.46036073
H       3.67746948     0.75616255     4.07857787
C       5.05368571    -0.42726707     3.11905057
H       5.78970299    -0.39495383     3.92445032
H       5.60465338    -0.40097628     2.17716333
H       4.53160138    -1.39263938     3.17774216
16 
# or19: geometry number 12. H8-H11 distance: 2.9 
C       0.53137635     0.64824300    -0.48840952
C      -0.23870518     1.94200426    -0.30948876
N      -1.49292135     1.81494590     0.21038719
O       0.26233237     3.02547039    -0.53840333
H      -2.02610676     2.65086950     0.38341210
H      -1.87632863     0.92749395     0.47909220
H       1.05157828     0.51386747    -1.43566552
H       1.28566054     0.69800392     0.29873572
H      -0.11495037    -0.21009168    -0.30362545
N       4.04942682     0.74885132     3.06675167
H       3.36372628     0.74790540     2.32090106
H       3.53415461     0.75272107     3.93911820
C       4.91037084    -0.43070855     2.97959090
H       5.64638812    -0.39839531     3.78499065
H       5.46133851    -0.40441776     2.03770366
H       4.38828651    -1.39608086     3.03828249
16 
# or19: geometry number 13. H8-H11 distance: 2.7 
C       0.53137635     0.64824300    -0.48840952
C      -0.23870518     1.94200426    -0.30948876
N      -1.49292135     1.81494590     0.21038719
O       0.26233237     3.02547039    -0.53840333
H      -2.02610676     2.65086950     0.38341210
H      -1.87632863     0.92749395     0.47909220
H       1.05157828     0.51386747    -1.43566552
H       1.28566054     0.69800392     0.29873572
H      -0.11495037    -0.21009168    -0.30362545
N       3.90611194     0.74540984     2.92729199
H       3.22041140     0.74446392     2.18144138
H       3.39083973     0.74927959     3.79965852
C       4.76705596    -0.43415003     2.84013122
H       5.50307324    -0.40183679     3.64553097
H       5.31802363    -0.40785924     1.89824398
H       4.24497163    -1.39952234     2.89882281
16 
# or19: geometry number 14. H8-H11 distance: 2.5 
C       0.53137635     0.64824300    -0.48840952
C      -0.23870518     1.94200426    -0.30948876
N      -1.49292135     1.81494590     0.21038719
O       0.26233237     3.02547039    -0.53840333
H      -2.02610676     2.65086950     0.38341210
H      -1.87632863     0.92749395     0.47909220
H       1.05157828     0.51386747    -1.43566552
H       1.28566054     0.69800392     0.29873572
H      -0.11495037    -0.21009168    -0.30362545
N       3.76279706     0.74196836     2.78783231
H       3.07709652     0.74102244     2.04198170
H       3.24752485     0.74583811     3.66019884
C       4.62374108    -0.43759151     2.70067154
H       5.35975836    -0.40527827     3.50607129
H       5.17470875    -0.41130072     1.75878430
H       4.10165675    -1.40296382     2.75936313
16 
# or19: geometry number 15. H8-H11 distance: 2.4 
C       0.53137635     0.64824300    -0.48840952
C      -0.23870518     1.94200426    -0.30948876
N      -1.49292135     1.81494590     0.21038719
O       0.26233237     3.02547039    -0.53840333
H      -2.02610676     2.65086950     0.38341210
H      -1.87632863     0.92749395     0.47909220
H       1.05157828     0.51386747    -1.43566552
H       1.28566054     0.69800392     0.29873572
H      -0.11495037    -0.21009168    -0.30362545
N       3.69113962     0.74024762     2.71810247
H       3.00543908     0.73930170     1.97225186
H       3.17586741     0.74411737     3.59046900
C       4.55208364    -0.43931225     2.63094170
H       5.28810092    -0.40699901     3.43634145
H       5.10305131    -0.41302146     1.68905446
H       4.02999931    -1.40468456     2.68963329
16 
# or19: geometry number 16. H8-H11 distance: 2.3 
C       0.53137635     0.64824300    -0.48840952
C      -0.23870518     1.94200426    -0.30948876
N      -1.49292135     1.81494590     0.21038719
O       0.26233237     3.02547039    -0.53840333
H      -2.02610676     2.65086950     0.38341210
H      -1.87632863     0.92749395     0.47909220
H       1.05157828     0.51386747    -1.43566552
H       1.28566054     0.69800392     0.29873572
H      -0.11495037    -0.21009168    -0.30362545
N       3.61948218     0.73852688     2.64837263
H       2.93378164     0.73758096     1.90252202
H       3.10420997     0.74239663     3.52073916
C       4.48042620    -0.44103299     2.56121186
H       5.21644348    -0.40871975     3.36661161
H       5.03139387    -0.41474220     1.61932462
H       3.95834187    -1.40640530     2.61990345
16 
# or19: geometry number 17. H8-H11 distance: 2.2 
C       0.53137635     0.64824300    -0.48840952
C      -0.23870518     1.94200426    -0.30948876
N      -1.49292135     1.81494590     0.21038719
O       0.26233237     3.02547039    -0.53840333
H      -2.02610676     2.65086950     0.38341210
H      -1.87632863     0.92749395     0.47909220
H       1.05157828     0.51386747    -1.43566552
H       1.28566054     0.69800392     0.29873572
H      -0.11495037    -0.21009168    -0.30362545
N       3.54782474     0.73680613     2.57864279
H       2.86212420     0.73586021     1.83279218
H       3.03255253     0.74067588     3.45100932
C       4.40876876    -0.44275374     2.49148202
H       5.14478604    -0.41044050     3.29688177
H       4.95973643    -0.41646295     1.54959478
H       3.88668443    -1.40812605     2.55017361
16 
# or19: geometry number 18. H8-H11 distance: 2.1 
C       0.53137635     0.64824300    -0.48840952
C      -0.23870518     1.94200426    -0.30948876
N      -1.49292135     1.81494590     0.21038719
O       0.26233237     3.02547039    -0.53840333
H      -2.02610676     2.65086950     0.38341210
H      -1.87632863     0.92749395     0.47909220
H       1.05157828     0.51386747    -1.43566552
H       1.28566054     0.69800392     0.29873572
H      -0.11495037    -0.21009168    -0.30362545
N       3.47616730     0.73508539     2.50891295
H       2.79046676     0.73413947     1.76306234
H       2.96089509     0.73895514     3.38127948
C       4.33711132    -0.44447448     2.42175218
H       5.07312860    -0.41216124     3.22715193
H       4.88807899    -0.41818369     1.47986494
H       3.81502699    -1.40984679     2.48044377
16 
# or19: geometry number 19. H8-H11 distance: 2.0 
C       0.53137635     0.64824300    -0.48840952
C      -0.23870518     1.94200426    -0.30948876
N      -1.49292135     1.81494590     0.21038719
O       0.26233237     3.02547039    -0.53840333
H      -2.02610676     2.65086950     0.38341210
H      -1.87632863     0.92749395     0.47909220
H       1.05157828     0.51386747    -1.43566552
H       1.28566054     0.69800392     0.29873572
H      -0.11495037    -0.21009168    -0.30362545
N       3.40450986     0.73336465     2.43918311
H       2.71880932     0.73241873     1.69333250
H       2.88923765     0.73723440     3.31154964
C       4.26545388    -0.44619522     2.35202234
H       5.00147116    -0.41388198     3.15742209
H       4.81642155    -0.41990443     1.41013510
H       3.74336955    -1.41156753     2.41071393
16 
# or19: geometry number 20. H8-H11 distance: 1.9 
C       0.53137635     0.64824300    -0.48840952
C      -0.23870518     1.94200426    -0.30948876
N      -1.49292135     1.81494590     0.21038719
O       0.26233237     3.02547039    -0.53840333
H      -2.02610676     2.65086950     0.38341210
H      -1.87632863     0.92749395     0.47909220
H       1.05157828     0.51386747    -1.43566552
H       1.28566054     0.69800392     0.29873572
H      -0.11495037    -0.21009168    -0.30362545
N       3.33285242     0.73164391     2.36945327
H       2.64715188     0.73069799     1.62360266
H       2.81758021     0.73551366     3.24181980
C       4.19379644    -0.44791596     2.28229250
H       4.92981372    -0.41560272     3.08769225
H       4.74476411    -0.42162517     1.34040526
H       3.67171211    -1.41328827     2.34098409
16 
# or19: geometry number 21. H8-H11 distance: 1.8 
C       0.53137635     0.64824300    -0.48840952
C      -0.23870518     1.94200426    -0.30948876
N      -1.49292135     1.81494590     0.21038719
O       0.26233237     3.02547039    -0.53840333
H      -2.02610676     2.65086950     0.38341210
H      -1.87632863     0.92749395     0.47909220
H       1.05157828     0.51386747    -1.43566552
H       1.28566054     0.69800392     0.29873572
H      -0.11495037    -0.21009168    -0.30362545
N       3.26119498     0.72992317     2.29972343
H       2.57549444     0.72897725     1.55387282
H       2.74592277     0.73379292     3.17208996
C       4.12213900    -0.44963670     2.21256266
H       4.85815628    -0.41732346     3.01796241
H       4.67310667    -0.42334591     1.27067542
H       3.60005467    -1.41500901     2.27125425
16 
# or19: geometry number 22. H8-H11 distance: 1.7 
C       0.53137635     0.64824300    -0.48840952
C      -0.23870518     1.94200426    -0.30948876
N      -1.49292135     1.81494590     0.21038719
O       0.26233237     3.02547039    -0.53840333
H      -2.02610676     2.65086950     0.38341210
H      -1.87632863     0.92749395     0.47909220
H       1.05157828     0.51386747    -1.43566552
H       1.28566054     0.69800392     0.29873572
H      -0.11495037    -0.21009168    -0.30362545
N       3.18953755     0.72820243     2.22999360
H       2.50383701     0.72725651     1.48414299
H       2.67426534     0.73207218     3.10236013
C       4.05048157    -0.45135744     2.14283283
H       4.78649885    -0.41904420     2.94823258
H       4.60144924    -0.42506665     1.20094559
H       3.52839724    -1.41672975     2.20152442
16 
# or19: geometry number 23. H8-H11 distance: 1.6 
C       0.53137635     0.64824300    -0.48840952
C      -0.23870518     1.94200426    -0.30948876
N      -1.49292135     1.81494590     0.21038719
O       0.26233237     3.02547039    -0.53840333
H      -2.02610676     2.65086950     0.38341210
H      -1.87632863     0.92749395     0.47909220
H       1.05157828     0.51386747    -1.43566552
H       1.28566054     0.69800392     0.29873572
H      -0.11495037    -0.21009168    -0.30362545
N       3.11788011     0.72648169     2.16026376
H       2.43217957     0.72553577     1.41441315
H       2.60260790     0.73035144     3.03263029
C       3.97882413    -0.45307818     2.07310299
H       4.71484141    -0.42076494     2.87850274
H       4.52979180    -0.42678739     1.13121575
H       3.45673980    -1.41845049     2.13179458
16 
# or19: geometry number 24. H8-H11 distance: 1.5 
C       0.53137635     0.64824300    -0.48840952
C      -0.23870518     1.94200426    -0.30948876
N      -1.49292135     1.81494590     0.21038719
O       0.26233237     3.02547039    -0.53840333
H      -2.02610676     2.65086950     0.38341210
H      -1.87632863     0.92749395     0.47909220
H       1.05157828     0.51386747    -1.43566552
H       1.28566054     0.69800392     0.29873572
H      -0.11495037    -0.21009168    -0.30362545
N       3.04622267     0.72476095     2.09053392
H       2.36052213     0.72381503     1.34468331
H       2.53095046     0.72863070     2.96290045
C       3.90716669    -0.45479892     2.00337315
H       4.64318397    -0.42248568     2.80877290
H       4.45813436    -0.42850813     1.06148591
H       3.38508236    -1.42017123     2.06206474
16 
# or19: geometry number 25. H8-H11 distance: 1.4 
C       0.53137635     0.64824300    -0.48840952
C      -0.23870518     1.94200426    -0.30948876
N      -1.49292135     1.81494590     0.21038719
O       0.26233237     3.02547039    -0.53840333
H      -2.02610676     2.65086950     0.38341210
H      -1.87632863     0.92749395     0.47909220
H       1.05157828     0.51386747    -1.43566552
H       1.28566054     0.69800392     0.29873572
H      -0.11495037    -0.21009168    -0.30362545
N       2.97456523     0.72304021     2.02080408
H       2.28886469     0.72209429     1.27495347
H       2.45929302     0.72690996     2.89317061
C       3.83550925    -0.45651966     1.93364331
H       4.57152653    -0.42420642     2.73904306
H       4.38647692    -0.43022887     0.99175607
H       3.31342492    -1.42189197     1.99233490
16 
# or19: geometry number 26. H8-H11 distance: 1.35 
C       0.53137635     0.64824300    -0.48840952
C      -0.23870518     1.94200426    -0.30948876
N      -1.49292135     1.81494590     0.21038719
O       0.26233237     3.02547039    -0.53840333
H      -2.02610676     2.65086950     0.38341210
H      -1.87632863     0.92749395     0.47909220
H       1.05157828     0.51386747    -1.43566552
H       1.28566054     0.69800392     0.29873572
H      -0.11495037    -0.21009168    -0.30362545
N       2.93873651     0.72217984     1.98593916
H       2.25303597     0.72123392     1.24008855
H       2.42346430     0.72604959     2.85830569
C       3.79968053    -0.45738003     1.89877839
H       4.53569781    -0.42506679     2.70417814
H       4.35064820    -0.43108924     0.95689115
H       3.27759620    -1.42275234     1.95746998
16 
# or19: geometry number 27. H8-H11 distance: 1.3 
C       0.53137635     0.64824300    -0.48840952
C      -0.23870518     1.94200426    -0.30948876
N      -1.49292135     1.81494590     0.21038719
O       0.26233237     3.02547039    -0.53840333
H      -2.02610676     2.65086950     0.38341210
H      -1.87632863     0.92749395     0.47909220
H       1.05157828     0.51386747    -1.43566552
H       1.28566054     0.69800392     0.29873572
H      -0.11495037    -0.21009168    -0.30362545
N       2.90290779     0.72131947     1.95107424
H       2.21720725     0.72037355     1.20522363
H       2.38763558     0.72518922     2.82344077
C       3.76385181    -0.45824040     1.86391347
H       4.49986909    -0.42592716     2.66931322
H       4.31481948    -0.43194961     0.92202623
H       3.24176748    -1.42361271     1.92260506
16 
# or19: geometry number 28. H8-H11 distance: 1.25 
C       0.53137635     0.64824300    -0.48840952
C      -0.23870518     1.94200426    -0.30948876
N      -1.49292135     1.81494590     0.21038719
O       0.26233237     3.02547039    -0.53840333
H      -2.02610676     2.65086950     0.38341210
H      -1.87632863     0.92749395     0.47909220
H       1.05157828     0.51386747    -1.43566552
H       1.28566054     0.69800392     0.29873572
H      -0.11495037    -0.21009168    -0.30362545
N       2.86707907     0.72045910     1.91620932
H       2.18137853     0.71951318     1.17035871
H       2.35180686     0.72432885     2.78857585
C       3.72802309    -0.45910077     1.82904855
H       4.46404037    -0.42678753     2.63444830
H       4.27899076    -0.43280998     0.88716131
H       3.20593876    -1.42447308     1.88774014
16 
# or19: geometry number 29. H8-H11 distance: 1.2 
C       0.53137635     0.64824300    -0.48840952
C      -0.23870518     1.94200426    -0.30948876
N      -1.49292135     1.81494590     0.21038719
O       0.26233237     3.02547039    -0.53840333
H      -2.02610676     2.65086950     0.38341210
H      -1.87632863     0.92749395     0.47909220
H       1.05157828     0.51386747    -1.43566552
H       1.28566054     0.69800392     0.29873572
H      -0.11495037    -0.21009168    -0.30362545
N       2.83125035     0.71959873     1.88134440
H       2.14554981     0.71865281     1.13549379
H       2.31597814     0.72346848     2.75371093
C       3.69219437    -0.45996114     1.79418363
H       4.42821165    -0.42764790     2.59958338
H       4.24316204    -0.43367035     0.85229639
H       3.17011004    -1.42533345     1.85287522
