16 
# or22: geometry number 1. O4-H11 distance: 10 
C       0.00000000     0.00000000     0.00000000
C       1.51619801     0.00000000     0.00000000
N       2.10614875     1.22940276     0.00000000
O       2.16368458    -1.02859994     0.00909230
H       3.11064874     1.27805767     0.04006291
H       1.57533379     2.08060330     0.02162449
H      -0.34658368    -0.71371738    -0.74595442
H      -0.34579656    -0.34702050     0.97520250
H      -0.43754990     0.97800447    -0.20169072
N       7.95656551   -10.38487301     0.44081047
H       7.40563024    -9.53526467     0.40741490
H       7.40272327   -11.11121864     0.00237625
C       9.22630203   -10.20620571    -0.26348369
H       9.80449285   -11.12993187    -0.20135718
H       9.80703167    -9.42788092     0.23488541
H       9.13817180    -9.93415387    -1.32470059
16 
# or22: geometry number 2. O4-H11 distance: 9 
C       0.00000000     0.00000000     0.00000000
C       1.51619801     0.00000000     0.00000000
N       2.10614875     1.22940276     0.00000000
O       2.16368458    -1.02859994     0.00909230
H       3.11064874     1.27805767     0.04006291
H       1.57533379     2.08060330     0.02162449
H      -0.34658368    -0.71371738    -0.74595442
H      -0.34579656    -0.34702050     0.97520250
H      -0.43754990     0.97800447    -0.20169072
N       7.43237095    -9.53420653     0.40097821
H       6.88143568    -8.68459819     0.36758264
H       6.87852871   -10.26055216    -0.03745601
C       8.70210747    -9.35553923    -0.30331595
H       9.28029829   -10.27926539    -0.24118944
H       9.28283711    -8.57721444     0.19505315
H       8.61397724    -9.08348739    -1.36453285
16 
# or22: geometry number 3. O4-H11 distance: 8 
C       0.00000000     0.00000000     0.00000000
C       1.51619801     0.00000000     0.00000000
N       2.10614875     1.22940276     0.00000000
O       2.16368458    -1.02859994     0.00909230
H       3.11064874     1.27805767     0.04006291
H       1.57533379     2.08060330     0.02162449
H      -0.34658368    -0.71371738    -0.74595442
H      -0.34579656    -0.34702050     0.97520250
H      -0.43754990     0.97800447    -0.20169072
N       6.90817638    -8.68354006     0.36114595
H       6.35724111    -7.83393172     0.32775038
H       6.35433414    -9.40988569    -0.07728827
C       8.17791290    -8.50487276    -0.34314821
H       8.75610372    -9.42859892    -0.28102170
H       8.75864254    -7.72654797     0.15522089
H       8.08978267    -8.23282092    -1.40436511
16 
# or22: geometry number 4. O4-H11 distance: 7 
C       0.00000000     0.00000000     0.00000000
C       1.51619801     0.00000000     0.00000000
N       2.10614875     1.22940276     0.00000000
O       2.16368458    -1.02859994     0.00909230
H       3.11064874     1.27805767     0.04006291
H       1.57533379     2.08060330     0.02162449
H      -0.34658368    -0.71371738    -0.74595442
H      -0.34579656    -0.34702050     0.97520250
H      -0.43754990     0.97800447    -0.20169072
N       6.38398181    -7.83287359     0.32131369
H       5.83304654    -6.98326525     0.28791812
H       5.83013957    -8.55921922    -0.11712053
C       7.65371833    -7.65420629    -0.38298047
H       8.23190915    -8.57793245    -0.32085396
H       8.23444797    -6.87588150     0.11538863
H       7.56558810    -7.38215445    -1.44419737
16 
# or22: geometry number 5. O4-H11 distance: 6 
C       0.00000000     0.00000000     0.00000000
C       1.51619801     0.00000000     0.00000000
N       2.10614875     1.22940276     0.00000000
O       2.16368458    -1.02859994     0.00909230
H       3.11064874     1.27805767     0.04006291
H       1.57533379     2.08060330     0.02162449
H      -0.34658368    -0.71371738    -0.74595442
H      -0.34579656    -0.34702050     0.97520250
H      -0.43754990     0.97800447    -0.20169072
N       5.85978725    -6.98220712     0.28148143
H       5.30885198    -6.13259878     0.24808586
H       5.30594501    -7.70855275    -0.15695279
C       7.12952377    -6.80353982    -0.42281273
H       7.70771459    -7.72726598    -0.36068622
H       7.71025341    -6.02521503     0.07555637
H       7.04139354    -6.53148798    -1.48402963
16 
# or22: geometry number 6. O4-H11 distance: 5 
C       0.00000000     0.00000000     0.00000000
C       1.51619801     0.00000000     0.00000000
N       2.10614875     1.22940276     0.00000000
O       2.16368458    -1.02859994     0.00909230
H       3.11064874     1.27805767     0.04006291
H       1.57533379     2.08060330     0.02162449
H      -0.34658368    -0.71371738    -0.74595442
H      -0.34579656    -0.34702050     0.97520250
H      -0.43754990     0.97800447    -0.20169072
N       5.33559268    -6.13154064     0.24164917
H       4.78465741    -5.28193230     0.20825360
H       4.78175044    -6.85788627    -0.19678505
C       6.60532920    -5.95287334    -0.46264499
H       7.18352002    -6.87659950    -0.40051848
H       7.18605884    -5.17454855     0.03572411
H       6.51719897    -5.68082150    -1.52386189
16 
# or22: geometry number 7. O4-H11 distance: 4.5 
C       0.00000000     0.00000000     0.00000000
C       1.51619801     0.00000000     0.00000000
N       2.10614875     1.22940276     0.00000000
O       2.16368458    -1.02859994     0.00909230
H       3.11064874     1.27805767     0.04006291
H       1.57533379     2.08060330     0.02162449
H      -0.34658368    -0.71371738    -0.74595442
H      -0.34579656    -0.34702050     0.97520250
H      -0.43754990     0.97800447    -0.20169072
N       5.07349540    -5.70620741     0.22173304
H       4.52256013    -4.85659907     0.18833747
H       4.51965316    -6.43255304    -0.21670118
C       6.34323192    -5.52754011    -0.48256112
H       6.92142274    -6.45126627    -0.42043461
H       6.92396156    -4.74921532     0.01580798
H       6.25510169    -5.25548827    -1.54377802
16 
# or22: geometry number 8. O4-H11 distance: 4 
C       0.00000000     0.00000000     0.00000000
C       1.51619801     0.00000000     0.00000000
N       2.10614875     1.22940276     0.00000000
O       2.16368458    -1.02859994     0.00909230
H       3.11064874     1.27805767     0.04006291
H       1.57533379     2.08060330     0.02162449
H      -0.34658368    -0.71371738    -0.74595442
H      -0.34579656    -0.34702050     0.97520250
H      -0.43754990     0.97800447    -0.20169072
N       4.81139812    -5.28087417     0.20181691
H       4.26046285    -4.43126583     0.16842134
H       4.25755588    -6.00721980    -0.23661731
C       6.08113464    -5.10220687    -0.50247725
H       6.65932546    -6.02593303    -0.44035074
H       6.66186428    -4.32388208    -0.00410815
H       5.99300441    -4.83015503    -1.56369415
16 
# or22: geometry number 9. O4-H11 distance: 3.7 
C       0.00000000     0.00000000     0.00000000
C       1.51619801     0.00000000     0.00000000
N       2.10614875     1.22940276     0.00000000
O       2.16368458    -1.02859994     0.00909230
H       3.11064874     1.27805767     0.04006291
H       1.57533379     2.08060330     0.02162449
H      -0.34658368    -0.71371738    -0.74595442
H      -0.34579656    -0.34702050     0.97520250
H      -0.43754990     0.97800447    -0.20169072
N       4.65413975    -5.02567423     0.18986723
H       4.10320448    -4.17606589     0.15647166
H       4.10029751    -5.75201986    -0.24856699
C       5.92387627    -4.84700693    -0.51442693
H       6.50206709    -5.77073309    -0.45230042
H       6.50460591    -4.06868214    -0.01605783
H       5.83574604    -4.57495509    -1.57564383
16 
# or22: geometry number 10. O4-H11 distance: 3.4 
C       0.00000000     0.00000000     0.00000000
C       1.51619801     0.00000000     0.00000000
N       2.10614875     1.22940276     0.00000000
O       2.16368458    -1.02859994     0.00909230
H       3.11064874     1.27805767     0.04006291
H       1.57533379     2.08060330     0.02162449
H      -0.34658368    -0.71371738    -0.74595442
H      -0.34579656    -0.34702050     0.97520250
H      -0.43754990     0.97800447    -0.20169072
N       4.49688138    -4.77047429     0.17791755
H       3.94594611    -3.92086595     0.14452198
H       3.94303914    -5.49681992    -0.26051667
C       5.76661790    -4.59180699    -0.52637661
H       6.34480872    -5.51553315    -0.46425010
H       6.34734754    -3.81348220    -0.02800751
H       5.67848767    -4.31975515    -1.58759351
16 
# or22: geometry number 11. O4-H11 distance: 3.1 
C       0.00000000     0.00000000     0.00000000
C       1.51619801     0.00000000     0.00000000
N       2.10614875     1.22940276     0.00000000
O       2.16368458    -1.02859994     0.00909230
H       3.11064874     1.27805767     0.04006291
H       1.57533379     2.08060330     0.02162449
H      -0.34658368    -0.71371738    -0.74595442
H      -0.34579656    -0.34702050     0.97520250
H      -0.43754990     0.97800447    -0.20169072
N       4.33962301    -4.51527435     0.16596788
H       3.78868774    -3.66566601     0.13257231
H       3.78578077    -5.24161998    -0.27246634
C       5.60935953    -4.33660705    -0.53832628
H       6.18755035    -5.26033321    -0.47619977
H       6.19008917    -3.55828226    -0.03995718
H       5.52122930    -4.06455521    -1.59954318
16 
# or22: geometry number 12. O4-H11 distance: 2.9 
C       0.00000000     0.00000000     0.00000000
C       1.51619801     0.00000000     0.00000000
N       2.10614875     1.22940276     0.00000000
O       2.16368458    -1.02859994     0.00909230
H       3.11064874     1.27805767     0.04006291
H       1.57533379     2.08060330     0.02162449
H      -0.34658368    -0.71371738    -0.74595442
H      -0.34579656    -0.34702050     0.97520250
H      -0.43754990     0.97800447    -0.20169072
N       4.23478409    -4.34514105     0.15800142
H       3.68384882    -3.49553271     0.12460585
H       3.68094185    -5.07148668    -0.28043280
C       5.50452061    -4.16647375    -0.54629274
H       6.08271143    -5.09019991    -0.48416623
H       6.08525025    -3.38814896    -0.04792364
H       5.41639038    -3.89442191    -1.60750964
16 
# or22: geometry number 13. O4-H11 distance: 2.7 
C       0.00000000     0.00000000     0.00000000
C       1.51619801     0.00000000     0.00000000
N       2.10614875     1.22940276     0.00000000
O       2.16368458    -1.02859994     0.00909230
H       3.11064874     1.27805767     0.04006291
H       1.57533379     2.08060330     0.02162449
H      -0.34658368    -0.71371738    -0.74595442
H      -0.34579656    -0.34702050     0.97520250
H      -0.43754990     0.97800447    -0.20169072
N       4.12994518    -4.17500776     0.15003497
H       3.57900991    -3.32539942     0.11663940
H       3.57610294    -4.90135339    -0.28839925
C       5.39968170    -3.99634046    -0.55425919
H       5.97787252    -4.92006662    -0.49213268
H       5.98041134    -3.21801567    -0.05589009
H       5.31155147    -3.72428862    -1.61547609
16 
# or22: geometry number 14. O4-H11 distance: 2.5 
C       0.00000000     0.00000000     0.00000000
C       1.51619801     0.00000000     0.00000000
N       2.10614875     1.22940276     0.00000000
O       2.16368458    -1.02859994     0.00909230
H       3.11064874     1.27805767     0.04006291
H       1.57533379     2.08060330     0.02162449
H      -0.34658368    -0.71371738    -0.74595442
H      -0.34579656    -0.34702050     0.97520250
H      -0.43754990     0.97800447    -0.20169072
N       4.02510627    -4.00487446     0.14206852
H       3.47417100    -3.15526612     0.10867295
H       3.47126403    -4.73122009    -0.29636570
C       5.29484279    -3.82620716    -0.56222564
H       5.87303361    -4.74993332    -0.50009913
H       5.87557243    -3.04788237    -0.06385654
H       5.20671256    -3.55415532    -1.62344254
16 
# or22: geometry number 15. O4-H11 distance: 2.4 
C       0.00000000     0.00000000     0.00000000
C       1.51619801     0.00000000     0.00000000
N       2.10614875     1.22940276     0.00000000
O       2.16368458    -1.02859994     0.00909230
H       3.11064874     1.27805767     0.04006291
H       1.57533379     2.08060330     0.02162449
H      -0.34658368    -0.71371738    -0.74595442
H      -0.34579656    -0.34702050     0.97520250
H      -0.43754990     0.97800447    -0.20169072
N       3.97268681    -3.91980781     0.13808529
H       3.42175154    -3.07019947     0.10468972
H       3.41884457    -4.64615344    -0.30034893
C       5.24242333    -3.74114051    -0.56620887
H       5.82061415    -4.66486667    -0.50408236
H       5.82315297    -2.96281572    -0.06783977
H       5.15429310    -3.46908867    -1.62742577
16 
# or22: geometry number 16. O4-H11 distance: 2.3 
C       0.00000000     0.00000000     0.00000000
C       1.51619801     0.00000000     0.00000000
N       2.10614875     1.22940276     0.00000000
O       2.16368458    -1.02859994     0.00909230
H       3.11064874     1.27805767     0.04006291
H       1.57533379     2.08060330     0.02162449
H      -0.34658368    -0.71371738    -0.74595442
H      -0.34579656    -0.34702050     0.97520250
H      -0.43754990     0.97800447    -0.20169072
N       3.92026735    -3.83474117     0.13410207
H       3.36933208    -2.98513283     0.10070650
H       3.36642511    -4.56108680    -0.30433215
C       5.19000387    -3.65607387    -0.57019209
H       5.76819469    -4.57980003    -0.50806558
H       5.77073351    -2.87774908    -0.07182299
H       5.10187364    -3.38402203    -1.63140899
16 
# or22: geometry number 17. O4-H11 distance: 2.2 
C       0.00000000     0.00000000     0.00000000
C       1.51619801     0.00000000     0.00000000
N       2.10614875     1.22940276     0.00000000
O       2.16368458    -1.02859994     0.00909230
H       3.11064874     1.27805767     0.04006291
H       1.57533379     2.08060330     0.02162449
H      -0.34658368    -0.71371738    -0.74595442
H      -0.34579656    -0.34702050     0.97520250
H      -0.43754990     0.97800447    -0.20169072
N       3.86784790    -3.74967452     0.13011884
H       3.31691263    -2.90006618     0.09672327
H       3.31400566    -4.47602015    -0.30831538
C       5.13758442    -3.57100722    -0.57417532
H       5.71577524    -4.49473338    -0.51204881
H       5.71831406    -2.79268243    -0.07580622
H       5.04945419    -3.29895538    -1.63539222
16 
# or22: geometry number 18. O4-H11 distance: 2.1 
C       0.00000000     0.00000000     0.00000000
C       1.51619801     0.00000000     0.00000000
N       2.10614875     1.22940276     0.00000000
O       2.16368458    -1.02859994     0.00909230
H       3.11064874     1.27805767     0.04006291
H       1.57533379     2.08060330     0.02162449
H      -0.34658368    -0.71371738    -0.74595442
H      -0.34579656    -0.34702050     0.97520250
H      -0.43754990     0.97800447    -0.20169072
N       3.81542844    -3.66460787     0.12613562
H       3.26449317    -2.81499953     0.09274005
H       3.26158620    -4.39095350    -0.31229860
C       5.08516496    -3.48594057    -0.57815854
H       5.66335578    -4.40966673    -0.51603203
H       5.66589460    -2.70761578    -0.07978944
H       4.99703473    -3.21388873    -1.63937544
16 
# or22: geometry number 19. O4-H11 distance: 2.0 
C       0.00000000     0.00000000     0.00000000
C       1.51619801     0.00000000     0.00000000
N       2.10614875     1.22940276     0.00000000
O       2.16368458    -1.02859994     0.00909230
H       3.11064874     1.27805767     0.04006291
H       1.57533379     2.08060330     0.02162449
H      -0.34658368    -0.71371738    -0.74595442
H      -0.34579656    -0.34702050     0.97520250
H      -0.43754990     0.97800447    -0.20169072
N       3.76300898    -3.57954123     0.12215239
H       3.21207371    -2.72993289     0.08875682
H       3.20916674    -4.30588686    -0.31628183
C       5.03274550    -3.40087393    -0.58214177
H       5.61093632    -4.32460009    -0.52001526
H       5.61347514    -2.62254914    -0.08377267
H       4.94461527    -3.12882209    -1.64335867
16 
# or22: geometry number 20. O4-H11 distance: 1.9 
C       0.00000000     0.00000000     0.00000000
C       1.51619801     0.00000000     0.00000000
N       2.10614875     1.22940276     0.00000000
O       2.16368458    -1.02859994     0.00909230
H       3.11064874     1.27805767     0.04006291
H       1.57533379     2.08060330     0.02162449
H      -0.34658368    -0.71371738    -0.74595442
H      -0.34579656    -0.34702050     0.97520250
H      -0.43754990     0.97800447    -0.20169072
N       3.71058953    -3.49447458     0.11816916
H       3.15965426    -2.64486624     0.08477359
H       3.15674729    -4.22082021    -0.32026506
C       4.98032605    -3.31580728    -0.58612500
H       5.55851687    -4.23953344    -0.52399849
H       5.56105569    -2.53748249    -0.08775590
H       4.89219582    -3.04375544    -1.64734190
16 
# or22: geometry number 21. O4-H11 distance: 1.8 
C       0.00000000     0.00000000     0.00000000
C       1.51619801     0.00000000     0.00000000
N       2.10614875     1.22940276     0.00000000
O       2.16368458    -1.02859994     0.00909230
H       3.11064874     1.27805767     0.04006291
H       1.57533379     2.08060330     0.02162449
H      -0.34658368    -0.71371738    -0.74595442
H      -0.34579656    -0.34702050     0.97520250
H      -0.43754990     0.97800447    -0.20169072
N       3.65817007    -3.40940793     0.11418594
H       3.10723480    -2.55979959     0.08079037
H       3.10432783    -4.13575356    -0.32424828
C       4.92790659    -3.23074063    -0.59010822
H       5.50609741    -4.15446679    -0.52798171
H       5.50863623    -2.45241584    -0.09173912
H       4.83977636    -2.95868879    -1.65132512
16 
# or22: geometry number 22. O4-H11 distance: 1.75 
C       0.00000000     0.00000000     0.00000000
C       1.51619801     0.00000000     0.00000000
N       2.10614875     1.22940276     0.00000000
O       2.16368458    -1.02859994     0.00909230
H       3.11064874     1.27805767     0.04006291
H       1.57533379     2.08060330     0.02162449
H      -0.34658368    -0.71371738    -0.74595442
H      -0.34579656    -0.34702050     0.97520250
H      -0.43754990     0.97800447    -0.20169072
N       3.63196034    -3.36687461     0.11219432
H       3.08102507    -2.51726627     0.07879875
H       3.07811810    -4.09322024    -0.32623990
C       4.90169686    -3.18820731    -0.59209984
H       5.47988768    -4.11193347    -0.52997333
H       5.48242650    -2.40988252    -0.09373074
H       4.81356663    -2.91615547    -1.65331674
16 
# or22: geometry number 23. O4-H11 distance: 1.7 
C       0.00000000     0.00000000     0.00000000
C       1.51619801     0.00000000     0.00000000
N       2.10614875     1.22940276     0.00000000
O       2.16368458    -1.02859994     0.00909230
H       3.11064874     1.27805767     0.04006291
H       1.57533379     2.08060330     0.02162449
H      -0.34658368    -0.71371738    -0.74595442
H      -0.34579656    -0.34702050     0.97520250
H      -0.43754990     0.97800447    -0.20169072
N       3.60575061    -3.32434128     0.11020271
H       3.05481534    -2.47473294     0.07680714
H       3.05190837    -4.05068691    -0.32823151
C       4.87548713    -3.14567398    -0.59409145
H       5.45367795    -4.06940014    -0.53196494
H       5.45621677    -2.36734919    -0.09572235
H       4.78735690    -2.87362214    -1.65530835
16 
# or22: geometry number 24. O4-H11 distance: 1.65 
C       0.00000000     0.00000000     0.00000000
C       1.51619801     0.00000000     0.00000000
N       2.10614875     1.22940276     0.00000000
O       2.16368458    -1.02859994     0.00909230
H       3.11064874     1.27805767     0.04006291
H       1.57533379     2.08060330     0.02162449
H      -0.34658368    -0.71371738    -0.74595442
H      -0.34579656    -0.34702050     0.97520250
H      -0.43754990     0.97800447    -0.20169072
N       3.57954088    -3.28180796     0.10821110
H       3.02860561    -2.43219962     0.07481553
H       3.02569864    -4.00815359    -0.33022312
C       4.84927740    -3.10314066    -0.59608306
H       5.42746822    -4.02686682    -0.53395655
H       5.43000704    -2.32481587    -0.09771396
H       4.76114717    -2.83108882    -1.65729996
16 
# or22: geometry number 25. O4-H11 distance: 1.6 
C       0.00000000     0.00000000     0.00000000
C       1.51619801     0.00000000     0.00000000
N       2.10614875     1.22940276     0.00000000
O       2.16368458    -1.02859994     0.00909230
H       3.11064874     1.27805767     0.04006291
H       1.57533379     2.08060330     0.02162449
H      -0.34658368    -0.71371738    -0.74595442
H      -0.34579656    -0.34702050     0.97520250
H      -0.43754990     0.97800447    -0.20169072
N       3.55333116    -3.23927464     0.10621949
H       3.00239589    -2.38966630     0.07282392
H       2.99948892    -3.96562027    -0.33221473
C       4.82306768    -3.06060734    -0.59807467
H       5.40125850    -3.98433350    -0.53594816
H       5.40379732    -2.28228255    -0.09970557
H       4.73493745    -2.78855550    -1.65929157
16 
# or22: geometry number 26. O4-H11 distance: 1.55 
C       0.00000000     0.00000000     0.00000000
C       1.51619801     0.00000000     0.00000000
N       2.10614875     1.22940276     0.00000000
O       2.16368458    -1.02859994     0.00909230
H       3.11064874     1.27805767     0.04006291
H       1.57533379     2.08060330     0.02162449
H      -0.34658368    -0.71371738    -0.74595442
H      -0.34579656    -0.34702050     0.97520250
H      -0.43754990     0.97800447    -0.20169072
N       3.52712143    -3.19674131     0.10422787
H       2.97618616    -2.34713297     0.07083230
H       2.97327919    -3.92308694    -0.33420635
C       4.79685795    -3.01807401    -0.60006629
H       5.37504877    -3.94180017    -0.53793978
H       5.37758759    -2.23974922    -0.10169719
H       4.70872772    -2.74602217    -1.66128319
16 
# or22: geometry number 27. O4-H11 distance: 1.5 
C       0.00000000     0.00000000     0.00000000
C       1.51619801     0.00000000     0.00000000
N       2.10614875     1.22940276     0.00000000
O       2.16368458    -1.02859994     0.00909230
H       3.11064874     1.27805767     0.04006291
H       1.57533379     2.08060330     0.02162449
H      -0.34658368    -0.71371738    -0.74595442
H      -0.34579656    -0.34702050     0.97520250
H      -0.43754990     0.97800447    -0.20169072
N       3.50091170    -3.15420799     0.10223626
H       2.94997643    -2.30459965     0.06884069
H       2.94706946    -3.88055362    -0.33619796
C       4.77064822    -2.97554069    -0.60205790
H       5.34883904    -3.89926685    -0.53993139
H       5.35137786    -2.19721590    -0.10368880
H       4.68251799    -2.70348885    -1.66327480
16 
# or22: geometry number 28. O4-H11 distance: 1.45 
C       0.00000000     0.00000000     0.00000000
C       1.51619801     0.00000000     0.00000000
N       2.10614875     1.22940276     0.00000000
O       2.16368458    -1.02859994     0.00909230
H       3.11064874     1.27805767     0.04006291
H       1.57533379     2.08060330     0.02162449
H      -0.34658368    -0.71371738    -0.74595442
H      -0.34579656    -0.34702050     0.97520250
H      -0.43754990     0.97800447    -0.20169072
N       3.47470197    -3.11167467     0.10024465
H       2.92376670    -2.26206633     0.06684908
H       2.92085973    -3.83802030    -0.33818957
C       4.74443849    -2.93300737    -0.60404951
H       5.32262931    -3.85673353    -0.54192300
H       5.32516813    -2.15468258    -0.10568041
H       4.65630826    -2.66095553    -1.66526641
16 
# or22: geometry number 29. O4-H11 distance: 1.4 
C       0.00000000     0.00000000     0.00000000
C       1.51619801     0.00000000     0.00000000
N       2.10614875     1.22940276     0.00000000
O       2.16368458    -1.02859994     0.00909230
H       3.11064874     1.27805767     0.04006291
H       1.57533379     2.08060330     0.02162449
H      -0.34658368    -0.71371738    -0.74595442
H      -0.34579656    -0.34702050     0.97520250
H      -0.43754990     0.97800447    -0.20169072
N       3.44849224    -3.06914134     0.09825303
H       2.89755697    -2.21953300     0.06485746
H       2.89465000    -3.79548697    -0.34018119
C       4.71822876    -2.89047404    -0.60604113
H       5.29641958    -3.81420020    -0.54391462
H       5.29895840    -2.11214925    -0.10767203
H       4.63009853    -2.61842220    -1.66725803
16 
# or22: geometry number 30. O4-H11 distance: 1.35 
C       0.00000000     0.00000000     0.00000000
C       1.51619801     0.00000000     0.00000000
N       2.10614875     1.22940276     0.00000000
O       2.16368458    -1.02859994     0.00909230
H       3.11064874     1.27805767     0.04006291
H       1.57533379     2.08060330     0.02162449
H      -0.34658368    -0.71371738    -0.74595442
H      -0.34579656    -0.34702050     0.97520250
H      -0.43754990     0.97800447    -0.20169072
N       3.42228251    -3.02660802     0.09626142
H       2.87134724    -2.17699968     0.06286585
H       2.86844027    -3.75295365    -0.34217280
C       4.69201903    -2.84794072    -0.60803274
H       5.27020985    -3.77166688    -0.54590623
H       5.27274867    -2.06961593    -0.10966364
H       4.60388880    -2.57588888    -1.66924964
16 
# or22: geometry number 31. O4-H11 distance: 1.3 
C       0.00000000     0.00000000     0.00000000
C       1.51619801     0.00000000     0.00000000
N       2.10614875     1.22940276     0.00000000
O       2.16368458    -1.02859994     0.00909230
H       3.11064874     1.27805767     0.04006291
H       1.57533379     2.08060330     0.02162449
H      -0.34658368    -0.71371738    -0.74595442
H      -0.34579656    -0.34702050     0.97520250
H      -0.43754990     0.97800447    -0.20169072
N       3.39607279    -2.98407469     0.09426981
H       2.84513752    -2.13446635     0.06087424
H       2.84223055    -3.71042032    -0.34416441
C       4.66580931    -2.80540739    -0.61002435
H       5.24400013    -3.72913355    -0.54789784
H       5.24653895    -2.02708260    -0.11165525
H       4.57767908    -2.53335555    -1.67124125
