16 
# or5: geometry number 1. C2-N10 distance: 10 
C       0.68186433    -1.02576018     0.34023867
C      -0.09319327     0.22831865     0.69439740
N      -1.32314135     0.02534131     1.24711881
O       0.35629248     1.34191752     0.50678217
H      -1.85692512     0.82868463     1.53470700
H      -1.68569907    -0.89217438     1.43012519
H       1.16322510    -1.04566166    -0.63641710
H       1.46795020    -1.05312294     1.09676937
H       0.05264538    -1.90886732     0.45349544
N       3.25664682     0.22319983    10.11663414
H       2.96375771     1.08652951    10.55862634
H       4.25850417     0.28844279     9.98036609
C       2.92252323    -0.92724108    10.95629493
H       3.23646819    -1.84304331    10.45213308
H       1.83908636    -0.98080056    11.07755525
H       3.37434043    -0.92187322    11.95818955
16 
# or5: geometry number 2. C2-N10 distance: 9 
C       0.68186433    -1.02576018     0.34023867
C      -0.09319327     0.22831865     0.69439740
N      -1.32314135     0.02534131     1.24711881
O       0.35629248     1.34191752     0.50678217
H      -1.85692512     0.82868463     1.53470700
H      -1.68569907    -0.89217438     1.43012519
H       1.16322510    -1.04566166    -0.63641710
H       1.46795020    -1.05312294     1.09676937
H       0.05264538    -1.90886732     0.45349544
N       2.92166281     0.22371171     9.17441046
H       2.62877370     1.08704139     9.61640266
H       3.92352016     0.28895467     9.03814241
C       2.58753922    -0.92672920    10.01407125
H       2.90148418    -1.84253143     9.50990940
H       1.50410235    -0.98028868    10.13533157
H       3.03935642    -0.92136134    11.01596587
16 
# or5: geometry number 3. C2-N10 distance: 8 
C       0.68186433    -1.02576018     0.34023867
C      -0.09319327     0.22831865     0.69439740
N      -1.32314135     0.02534131     1.24711881
O       0.35629248     1.34191752     0.50678217
H      -1.85692512     0.82868463     1.53470700
H      -1.68569907    -0.89217438     1.43012519
H       1.16322510    -1.04566166    -0.63641710
H       1.46795020    -1.05312294     1.09676937
H       0.05264538    -1.90886732     0.45349544
N       2.58667880     0.22422359     8.23218679
H       2.29378969     1.08755327     8.67417899
H       3.58853615     0.28946655     8.09591874
C       2.25255521    -0.92621732     9.07184758
H       2.56650017    -1.84201955     8.56768573
H       1.16911834    -0.97977680     9.19310790
H       2.70437241    -0.92084946    10.07374220
16 
# or5: geometry number 4. C2-N10 distance: 7 
C       0.68186433    -1.02576018     0.34023867
C      -0.09319327     0.22831865     0.69439740
N      -1.32314135     0.02534131     1.24711881
O       0.35629248     1.34191752     0.50678217
H      -1.85692512     0.82868463     1.53470700
H      -1.68569907    -0.89217438     1.43012519
H       1.16322510    -1.04566166    -0.63641710
H       1.46795020    -1.05312294     1.09676937
H       0.05264538    -1.90886732     0.45349544
N       2.25169479     0.22473547     7.28996312
H       1.95880568     1.08806515     7.73195532
H       3.25355214     0.28997843     7.15369507
C       1.91757120    -0.92570544     8.12962391
H       2.23151616    -1.84150767     7.62546206
H       0.83413433    -0.97926492     8.25088423
H       2.36938840    -0.92033758     9.13151853
16 
# or5: geometry number 5. C2-N10 distance: 6 
C       0.68186433    -1.02576018     0.34023867
C      -0.09319327     0.22831865     0.69439740
N      -1.32314135     0.02534131     1.24711881
O       0.35629248     1.34191752     0.50678217
H      -1.85692512     0.82868463     1.53470700
H      -1.68569907    -0.89217438     1.43012519
H       1.16322510    -1.04566166    -0.63641710
H       1.46795020    -1.05312294     1.09676937
H       0.05264538    -1.90886732     0.45349544
N       1.91671078     0.22524736     6.34773944
H       1.62382167     1.08857704     6.78973164
H       2.91856813     0.29049032     6.21147139
C       1.58258719    -0.92519355     7.18740023
H       1.89653215    -1.84099578     6.68323838
H       0.49915032    -0.97875303     7.30866055
H       2.03440439    -0.91982569     8.18929485
16 
# or5: geometry number 6. C2-N10 distance: 5 
C       0.68186433    -1.02576018     0.34023867
C      -0.09319327     0.22831865     0.69439740
N      -1.32314135     0.02534131     1.24711881
O       0.35629248     1.34191752     0.50678217
H      -1.85692512     0.82868463     1.53470700
H      -1.68569907    -0.89217438     1.43012519
H       1.16322510    -1.04566166    -0.63641710
H       1.46795020    -1.05312294     1.09676937
H       0.05264538    -1.90886732     0.45349544
N       1.58172678     0.22575924     5.40551577
H       1.28883767     1.08908892     5.84750797
H       2.58358413     0.29100220     5.26924772
C       1.24760319    -0.92468167     6.24517656
H       1.56154815    -1.84048390     5.74101471
H       0.16416632    -0.97824115     6.36643688
H       1.69942039    -0.91931381     7.24707118
16 
# or5: geometry number 7. C2-N10 distance: 4.7 
C       0.68186433    -1.02576018     0.34023867
C      -0.09319327     0.22831865     0.69439740
N      -1.32314135     0.02534131     1.24711881
O       0.35629248     1.34191752     0.50678217
H      -1.85692512     0.82868463     1.53470700
H      -1.68569907    -0.89217438     1.43012519
H       1.16322510    -1.04566166    -0.63641710
H       1.46795020    -1.05312294     1.09676937
H       0.05264538    -1.90886732     0.45349544
N       1.48123157     0.22591280     5.12284867
H       1.18834246     1.08924248     5.56484087
H       2.48308892     0.29115576     4.98658062
C       1.14710798    -0.92452811     5.96250946
H       1.46105294    -1.84033034     5.45834761
H       0.06367111    -0.97808759     6.08376978
H       1.59892518    -0.91916025     6.96440408
16 
# or5: geometry number 8. C2-N10 distance: 4.4 
C       0.68186433    -1.02576018     0.34023867
C      -0.09319327     0.22831865     0.69439740
N      -1.32314135     0.02534131     1.24711881
O       0.35629248     1.34191752     0.50678217
H      -1.85692512     0.82868463     1.53470700
H      -1.68569907    -0.89217438     1.43012519
H       1.16322510    -1.04566166    -0.63641710
H       1.46795020    -1.05312294     1.09676937
H       0.05264538    -1.90886732     0.45349544
N       1.38073637     0.22606637     4.84018157
H       1.08784726     1.08939605     5.28217377
H       2.38259372     0.29130933     4.70391352
C       1.04661278    -0.92437454     5.67984236
H       1.36055774    -1.84017677     5.17568051
H      -0.03682409    -0.97793402     5.80110268
H       1.49842998    -0.91900668     6.68173698
16 
# or5: geometry number 9. C2-N10 distance: 4.2 
C       0.68186433    -1.02576018     0.34023867
C      -0.09319327     0.22831865     0.69439740
N      -1.32314135     0.02534131     1.24711881
O       0.35629248     1.34191752     0.50678217
H      -1.85692512     0.82868463     1.53470700
H      -1.68569907    -0.89217438     1.43012519
H       1.16322510    -1.04566166    -0.63641710
H       1.46795020    -1.05312294     1.09676937
H       0.05264538    -1.90886732     0.45349544
N       1.31373957     0.22616874     4.65173683
H       1.02085046     1.08949842     5.09372903
H       2.31559692     0.29141170     4.51546878
C       0.97961598    -0.92427217     5.49139762
H       1.29356094    -1.84007440     4.98723577
H      -0.10382089    -0.97783165     5.61265794
H       1.43143318    -0.91890431     6.49329224
16 
# or5: geometry number 10. C2-N10 distance: 4 
C       0.68186433    -1.02576018     0.34023867
C      -0.09319327     0.22831865     0.69439740
N      -1.32314135     0.02534131     1.24711881
O       0.35629248     1.34191752     0.50678217
H      -1.85692512     0.82868463     1.53470700
H      -1.68569907    -0.89217438     1.43012519
H       1.16322510    -1.04566166    -0.63641710
H       1.46795020    -1.05312294     1.09676937
H       0.05264538    -1.90886732     0.45349544
N       1.24674277     0.22627112     4.46329210
H       0.95385366     1.08960080     4.90528430
H       2.24860012     0.29151408     4.32702405
C       0.91261918    -0.92416979     5.30295289
H       1.22656414    -1.83997202     4.79879104
H      -0.17081769    -0.97772927     5.42421321
H       1.36443638    -0.91880193     6.30484751
16 
# or5: geometry number 11. C2-N10 distance: 3.8 
C       0.68186433    -1.02576018     0.34023867
C      -0.09319327     0.22831865     0.69439740
N      -1.32314135     0.02534131     1.24711881
O       0.35629248     1.34191752     0.50678217
H      -1.85692512     0.82868463     1.53470700
H      -1.68569907    -0.89217438     1.43012519
H       1.16322510    -1.04566166    -0.63641710
H       1.46795020    -1.05312294     1.09676937
H       0.05264538    -1.90886732     0.45349544
N       1.17974596     0.22637350     4.27484736
H       0.88685685     1.08970318     4.71683956
H       2.18160331     0.29161646     4.13857931
C       0.84562237    -0.92406741     5.11450815
H       1.15956733    -1.83986964     4.61034630
H      -0.23781450    -0.97762689     5.23576847
H       1.29743957    -0.91869955     6.11640277
16 
# or5: geometry number 12. C2-N10 distance: 3.7 
C       0.68186433    -1.02576018     0.34023867
C      -0.09319327     0.22831865     0.69439740
N      -1.32314135     0.02534131     1.24711881
O       0.35629248     1.34191752     0.50678217
H      -1.85692512     0.82868463     1.53470700
H      -1.68569907    -0.89217438     1.43012519
H       1.16322510    -1.04566166    -0.63641710
H       1.46795020    -1.05312294     1.09676937
H       0.05264538    -1.90886732     0.45349544
N       1.14624756     0.22642469     4.18062499
H       0.85335845     1.08975437     4.62261719
H       2.14810491     0.29166765     4.04435694
C       0.81212397    -0.92401622     5.02028578
H       1.12606893    -1.83981845     4.51612393
H      -0.27131290    -0.97757570     5.14154610
H       1.26394117    -0.91864836     6.02218040
16 
# or5: geometry number 13. C2-N10 distance: 3.6 
C       0.68186433    -1.02576018     0.34023867
C      -0.09319327     0.22831865     0.69439740
N      -1.32314135     0.02534131     1.24711881
O       0.35629248     1.34191752     0.50678217
H      -1.85692512     0.82868463     1.53470700
H      -1.68569907    -0.89217438     1.43012519
H       1.16322510    -1.04566166    -0.63641710
H       1.46795020    -1.05312294     1.09676937
H       0.05264538    -1.90886732     0.45349544
N       1.11274916     0.22647587     4.08640263
H       0.81986005     1.08980555     4.52839483
H       2.11460651     0.29171883     3.95013458
C       0.77862557    -0.92396504     4.92606342
H       1.09257053    -1.83976727     4.42190157
H      -0.30481130    -0.97752452     5.04732374
H       1.23044277    -0.91859718     5.92795804
16 
# or5: geometry number 14. C2-N10 distance: 3.5 
C       0.68186433    -1.02576018     0.34023867
C      -0.09319327     0.22831865     0.69439740
N      -1.32314135     0.02534131     1.24711881
O       0.35629248     1.34191752     0.50678217
H      -1.85692512     0.82868463     1.53470700
H      -1.68569907    -0.89217438     1.43012519
H       1.16322510    -1.04566166    -0.63641710
H       1.46795020    -1.05312294     1.09676937
H       0.05264538    -1.90886732     0.45349544
N       1.07925076     0.22652706     3.99218026
H       0.78636165     1.08985674     4.43417246
H       2.08110811     0.29177002     3.85591221
C       0.74512717    -0.92391385     4.83184105
H       1.05907213    -1.83971608     4.32767920
H      -0.33830970    -0.97747333     4.95310137
H       1.19694437    -0.91854599     5.83373567
16 
# or5: geometry number 15. C2-N10 distance: 3.4 
C       0.68186433    -1.02576018     0.34023867
C      -0.09319327     0.22831865     0.69439740
N      -1.32314135     0.02534131     1.24711881
O       0.35629248     1.34191752     0.50678217
H      -1.85692512     0.82868463     1.53470700
H      -1.68569907    -0.89217438     1.43012519
H       1.16322510    -1.04566166    -0.63641710
H       1.46795020    -1.05312294     1.09676937
H       0.05264538    -1.90886732     0.45349544
N       1.04575236     0.22657825     3.89795789
H       0.75286325     1.08990793     4.33995009
H       2.04760971     0.29182121     3.76168984
C       0.71162877    -0.92386266     4.73761868
H       1.02557373    -1.83966489     4.23345683
H      -0.37180810    -0.97742214     4.85887900
H       1.16344597    -0.91849480     5.73951330
16 
# or5: geometry number 16. C2-N10 distance: 3.3 
C       0.68186433    -1.02576018     0.34023867
C      -0.09319327     0.22831865     0.69439740
N      -1.32314135     0.02534131     1.24711881
O       0.35629248     1.34191752     0.50678217
H      -1.85692512     0.82868463     1.53470700
H      -1.68569907    -0.89217438     1.43012519
H       1.16322510    -1.04566166    -0.63641710
H       1.46795020    -1.05312294     1.09676937
H       0.05264538    -1.90886732     0.45349544
N       1.01225396     0.22662944     3.80373552
H       0.71936485     1.08995912     4.24572772
H       2.01411131     0.29187240     3.66746747
C       0.67813037    -0.92381147     4.64339631
H       0.99207533    -1.83961370     4.13923446
H      -0.40530650    -0.97737095     4.76465663
H       1.12994757    -0.91844361     5.64529093
16 
# or5: geometry number 17. C2-N10 distance: 3.2 
C       0.68186433    -1.02576018     0.34023867
C      -0.09319327     0.22831865     0.69439740
N      -1.32314135     0.02534131     1.24711881
O       0.35629248     1.34191752     0.50678217
H      -1.85692512     0.82868463     1.53470700
H      -1.68569907    -0.89217438     1.43012519
H       1.16322510    -1.04566166    -0.63641710
H       1.46795020    -1.05312294     1.09676937
H       0.05264538    -1.90886732     0.45349544
N       0.97875556     0.22668063     3.70951316
H       0.68586645     1.09001031     4.15150536
H       1.98061291     0.29192359     3.57324511
C       0.64463197    -0.92376028     4.54917395
H       0.95857693    -1.83956251     4.04501210
H      -0.43880490    -0.97731976     4.67043427
H       1.09644917    -0.91839242     5.55106857
16 
# or5: geometry number 18. C2-N10 distance: 3.1 
C       0.68186433    -1.02576018     0.34023867
C      -0.09319327     0.22831865     0.69439740
N      -1.32314135     0.02534131     1.24711881
O       0.35629248     1.34191752     0.50678217
H      -1.85692512     0.82868463     1.53470700
H      -1.68569907    -0.89217438     1.43012519
H       1.16322510    -1.04566166    -0.63641710
H       1.46795020    -1.05312294     1.09676937
H       0.05264538    -1.90886732     0.45349544
N       0.94525716     0.22673181     3.61529079
H       0.65236805     1.09006149     4.05728299
H       1.94711451     0.29197477     3.47902274
C       0.61113357    -0.92370910     4.45495158
H       0.92507853    -1.83951133     3.95078973
H      -0.47230330    -0.97726858     4.57621190
H       1.06295077    -0.91834124     5.45684620
16 
# or5: geometry number 19. C2-N10 distance: 3 
C       0.68186433    -1.02576018     0.34023867
C      -0.09319327     0.22831865     0.69439740
N      -1.32314135     0.02534131     1.24711881
O       0.35629248     1.34191752     0.50678217
H      -1.85692512     0.82868463     1.53470700
H      -1.68569907    -0.89217438     1.43012519
H       1.16322510    -1.04566166    -0.63641710
H       1.46795020    -1.05312294     1.09676937
H       0.05264538    -1.90886732     0.45349544
N       0.91175876     0.22678300     3.52106842
H       0.61886965     1.09011268     3.96306062
H       1.91361611     0.29202596     3.38480037
C       0.57763517    -0.92365791     4.36072921
H       0.89158013    -1.83946014     3.85656736
H      -0.50580170    -0.97721739     4.48198953
H       1.02945237    -0.91829005     5.36262383
16 
# or5: geometry number 20. C2-N10 distance: 2.9 
C       0.68186433    -1.02576018     0.34023867
C      -0.09319327     0.22831865     0.69439740
N      -1.32314135     0.02534131     1.24711881
O       0.35629248     1.34191752     0.50678217
H      -1.85692512     0.82868463     1.53470700
H      -1.68569907    -0.89217438     1.43012519
H       1.16322510    -1.04566166    -0.63641710
H       1.46795020    -1.05312294     1.09676937
H       0.05264538    -1.90886732     0.45349544
N       0.87826036     0.22683419     3.42684605
H       0.58537125     1.09016387     3.86883825
H       1.88011771     0.29207715     3.29057800
C       0.54413677    -0.92360672     4.26650684
H       0.85808173    -1.83940895     3.76234499
H      -0.53930010    -0.97716620     4.38776716
H       0.99595397    -0.91823886     5.26840146
16 
# or5: geometry number 21. C2-N10 distance: 2.85 
C       0.68186433    -1.02576018     0.34023867
C      -0.09319327     0.22831865     0.69439740
N      -1.32314135     0.02534131     1.24711881
O       0.35629248     1.34191752     0.50678217
H      -1.85692512     0.82868463     1.53470700
H      -1.68569907    -0.89217438     1.43012519
H       1.16322510    -1.04566166    -0.63641710
H       1.46795020    -1.05312294     1.09676937
H       0.05264538    -1.90886732     0.45349544
N       0.86151116     0.22685979     3.37973487
H       0.56862205     1.09018947     3.82172707
H       1.86336851     0.29210275     3.24346682
C       0.52738757    -0.92358112     4.21939566
H       0.84133253    -1.83938335     3.71523381
H      -0.55604930    -0.97714060     4.34065598
H       0.97920477    -0.91821326     5.22129028
16 
# or5: geometry number 22. C2-N10 distance: 2.8 
C       0.68186433    -1.02576018     0.34023867
C      -0.09319327     0.22831865     0.69439740
N      -1.32314135     0.02534131     1.24711881
O       0.35629248     1.34191752     0.50678217
H      -1.85692512     0.82868463     1.53470700
H      -1.68569907    -0.89217438     1.43012519
H       1.16322510    -1.04566166    -0.63641710
H       1.46795020    -1.05312294     1.09676937
H       0.05264538    -1.90886732     0.45349544
N       0.84476196     0.22688538     3.33262369
H       0.55187285     1.09021506     3.77461589
H       1.84661931     0.29212834     3.19635564
C       0.51063837    -0.92355553     4.17228448
H       0.82458333    -1.83935776     3.66812263
H      -0.57279850    -0.97711501     4.29354480
H       0.96245557    -0.91818767     5.17417910
16 
# or5: geometry number 23. C2-N10 distance: 2.75 
C       0.68186433    -1.02576018     0.34023867
C      -0.09319327     0.22831865     0.69439740
N      -1.32314135     0.02534131     1.24711881
O       0.35629248     1.34191752     0.50678217
H      -1.85692512     0.82868463     1.53470700
H      -1.68569907    -0.89217438     1.43012519
H       1.16322510    -1.04566166    -0.63641710
H       1.46795020    -1.05312294     1.09676937
H       0.05264538    -1.90886732     0.45349544
N       0.82801276     0.22691097     3.28551250
H       0.53512365     1.09024065     3.72750470
H       1.82987011     0.29215393     3.14924445
C       0.49388917    -0.92352994     4.12517329
H       0.80783413    -1.83933217     3.62101144
H      -0.58954770    -0.97708942     4.24643361
H       0.94570637    -0.91816208     5.12706791
16 
# or5: geometry number 24. C2-N10 distance: 2.7 
C       0.68186433    -1.02576018     0.34023867
C      -0.09319327     0.22831865     0.69439740
N      -1.32314135     0.02534131     1.24711881
O       0.35629248     1.34191752     0.50678217
H      -1.85692512     0.82868463     1.53470700
H      -1.68569907    -0.89217438     1.43012519
H       1.16322510    -1.04566166    -0.63641710
H       1.46795020    -1.05312294     1.09676937
H       0.05264538    -1.90886732     0.45349544
N       0.81126355     0.22693657     3.23840132
H       0.51837444     1.09026625     3.68039352
H       1.81312090     0.29217953     3.10213327
C       0.47713996    -0.92350434     4.07806211
H       0.79108492    -1.83930657     3.57390026
H      -0.60629691    -0.97706382     4.19932243
H       0.92895716    -0.91813648     5.07995673
16 
# or5: geometry number 25. C2-N10 distance: 2.65 
C       0.68186433    -1.02576018     0.34023867
C      -0.09319327     0.22831865     0.69439740
N      -1.32314135     0.02534131     1.24711881
O       0.35629248     1.34191752     0.50678217
H      -1.85692512     0.82868463     1.53470700
H      -1.68569907    -0.89217438     1.43012519
H       1.16322510    -1.04566166    -0.63641710
H       1.46795020    -1.05312294     1.09676937
H       0.05264538    -1.90886732     0.45349544
N       0.79451435     0.22696216     3.19129014
H       0.50162524     1.09029184     3.63328234
H       1.79637170     0.29220512     3.05502209
C       0.46039076    -0.92347875     4.03095093
H       0.77433572    -1.83928098     3.52678908
H      -0.62304611    -0.97703823     4.15221125
H       0.91220796    -0.91811089     5.03284555
16 
# or5: geometry number 26. C2-N10 distance: 2.6 
C       0.68186433    -1.02576018     0.34023867
C      -0.09319327     0.22831865     0.69439740
N      -1.32314135     0.02534131     1.24711881
O       0.35629248     1.34191752     0.50678217
H      -1.85692512     0.82868463     1.53470700
H      -1.68569907    -0.89217438     1.43012519
H       1.16322510    -1.04566166    -0.63641710
H       1.46795020    -1.05312294     1.09676937
H       0.05264538    -1.90886732     0.45349544
N       0.77776515     0.22698776     3.14417895
H       0.48487604     1.09031744     3.58617115
H       1.77962250     0.29223072     3.00791090
C       0.44364156    -0.92345315     3.98383974
H       0.75758652    -1.83925538     3.47967789
H      -0.63979531    -0.97701263     4.10510006
H       0.89545876    -0.91808529     4.98573436
16 
# or5: geometry number 27. C2-N10 distance: 2.55 
C       0.68186433    -1.02576018     0.34023867
C      -0.09319327     0.22831865     0.69439740
N      -1.32314135     0.02534131     1.24711881
O       0.35629248     1.34191752     0.50678217
H      -1.85692512     0.82868463     1.53470700
H      -1.68569907    -0.89217438     1.43012519
H       1.16322510    -1.04566166    -0.63641710
H       1.46795020    -1.05312294     1.09676937
H       0.05264538    -1.90886732     0.45349544
N       0.76101595     0.22701335     3.09706777
H       0.46812684     1.09034303     3.53905997
H       1.76287330     0.29225631     2.96079972
C       0.42689236    -0.92342756     3.93672856
H       0.74083732    -1.83922979     3.43256671
H      -0.65654451    -0.97698704     4.05798888
H       0.87870956    -0.91805970     4.93862318
16 
# or5: geometry number 28. C2-N10 distance: 2.5 
C       0.68186433    -1.02576018     0.34023867
C      -0.09319327     0.22831865     0.69439740
N      -1.32314135     0.02534131     1.24711881
O       0.35629248     1.34191752     0.50678217
H      -1.85692512     0.82868463     1.53470700
H      -1.68569907    -0.89217438     1.43012519
H       1.16322510    -1.04566166    -0.63641710
H       1.46795020    -1.05312294     1.09676937
H       0.05264538    -1.90886732     0.45349544
N       0.74426675     0.22703894     3.04995658
H       0.45137764     1.09036862     3.49194878
H       1.74612410     0.29228190     2.91368853
C       0.41014316    -0.92340197     3.88961737
H       0.72408812    -1.83920420     3.38545552
H      -0.67329371    -0.97696145     4.01087769
H       0.86196036    -0.91803411     4.89151199
16 
# or5: geometry number 29. C2-N10 distance: 2.45 
C       0.68186433    -1.02576018     0.34023867
C      -0.09319327     0.22831865     0.69439740
N      -1.32314135     0.02534131     1.24711881
O       0.35629248     1.34191752     0.50678217
H      -1.85692512     0.82868463     1.53470700
H      -1.68569907    -0.89217438     1.43012519
H       1.16322510    -1.04566166    -0.63641710
H       1.46795020    -1.05312294     1.09676937
H       0.05264538    -1.90886732     0.45349544
N       0.72751755     0.22706454     3.00284540
H       0.43462844     1.09039422     3.44483760
H       1.72937490     0.29230750     2.86657735
C       0.39339396    -0.92337637     3.84250619
H       0.70733892    -1.83917860     3.33834434
H      -0.69004291    -0.97693585     3.96376651
H       0.84521116    -0.91800851     4.84440081
16 
# or5: geometry number 30. C2-N10 distance: 2.4 
C       0.68186433    -1.02576018     0.34023867
C      -0.09319327     0.22831865     0.69439740
N      -1.32314135     0.02534131     1.24711881
O       0.35629248     1.34191752     0.50678217
H      -1.85692512     0.82868463     1.53470700
H      -1.68569907    -0.89217438     1.43012519
H       1.16322510    -1.04566166    -0.63641710
H       1.46795020    -1.05312294     1.09676937
H       0.05264538    -1.90886732     0.45349544
N       0.71076835     0.22709013     2.95573422
H       0.41787924     1.09041981     3.39772642
H       1.71262570     0.29233309     2.81946617
C       0.37664476    -0.92335078     3.79539501
H       0.69058972    -1.83915301     3.29123316
H      -0.70679211    -0.97691026     3.91665533
H       0.82846196    -0.91798292     4.79728963
