18 
# or11: geometry number 1. C2-H17 distance: 10 
C      -0.44842159     7.51019030     2.78328247
C       0.71835981     7.69746292     3.73323327
N       0.97107409     6.65137137     4.57067044
O       1.39064485     8.71003726     3.74131866
H       1.76084424     6.71531680     5.19128841
H       0.43657693     5.80252482     4.54728658
H      -1.05872276     8.41193584     2.80194272
H      -0.05576938     7.39772634     1.77125751
H      -1.06974886     6.64575057     3.01848066
C       7.71369369     3.78644923    -3.93390578
C       9.12705853     4.07104926    -3.46458309
N       9.92081633     4.83899117    -4.26434459
O       9.51863182     3.61909906    -2.40639894
H      10.89235602     5.06270663    -3.99084135
H       9.55308860     5.20619897    -5.15803207
H       7.58872814     2.70440993    -4.00171998
H       7.01751512     4.16031365    -3.18118771
H       7.47152677     4.24174489    -4.89571848
18 
# or11: geometry number 2. C2-H17 distance: 9 
C      -0.44842159     7.51019030     2.78328247
C       0.71835981     7.69746292     3.73323327
N       0.97107409     6.65137137     4.57067044
O       1.39064485     8.71003726     3.74131866
H       1.76084424     6.71531680     5.19128841
H       0.43657693     5.80252482     4.54728658
H      -1.05872276     8.41193584     2.80194272
H      -0.05576938     7.39772634     1.77125751
H      -1.06974886     6.64575057     3.01848066
C       7.08377816     4.14016416    -3.24246368
C       8.49714300     4.42476419    -2.77314099
N       9.29090080     5.19270610    -3.57290249
O       8.88871629     3.97281399    -1.71495684
H      10.26244049     5.41642156    -3.29939925
H       8.92317307     5.55991390    -4.46658997
H       6.95881261     3.05812486    -3.31027788
H       6.38759959     4.51402858    -2.48974561
H       6.84161124     4.59545982    -4.20427638
18 
# or11: geometry number 3. C2-H17 distance: 8 
C      -0.44842159     7.51019030     2.78328247
C       0.71835981     7.69746292     3.73323327
N       0.97107409     6.65137137     4.57067044
O       1.39064485     8.71003726     3.74131866
H       1.76084424     6.71531680     5.19128841
H       0.43657693     5.80252482     4.54728658
H      -1.05872276     8.41193584     2.80194272
H      -0.05576938     7.39772634     1.77125751
H      -1.06974886     6.64575057     3.01848066
C       6.45386263     4.49387909    -2.55102158
C       7.86722747     4.77847912    -2.08169889
N       8.66098527     5.54642103    -2.88146039
O       8.25880076     4.32652892    -1.02351474
H       9.63252496     5.77013649    -2.60795715
H       8.29325754     5.91362883    -3.77514787
H       6.32889708     3.41183979    -2.61883578
H       5.75768406     4.86774351    -1.79830351
H       6.21169571     4.94917475    -3.51283428
18 
# or11: geometry number 4. C2-H17 distance: 7 
C      -0.44842159     7.51019030     2.78328247
C       0.71835981     7.69746292     3.73323327
N       0.97107409     6.65137137     4.57067044
O       1.39064485     8.71003726     3.74131866
H       1.76084424     6.71531680     5.19128841
H       0.43657693     5.80252482     4.54728658
H      -1.05872276     8.41193584     2.80194272
H      -0.05576938     7.39772634     1.77125751
H      -1.06974886     6.64575057     3.01848066
C       5.82394710     4.84759401    -1.85957949
C       7.23731194     5.13219404    -1.39025680
N       8.03106974     5.90013595    -2.19001830
O       7.62888523     4.68024384    -0.33207265
H       9.00260943     6.12385141    -1.91651506
H       7.66334201     6.26734375    -3.08370578
H       5.69898155     3.76555471    -1.92739369
H       5.12776853     5.22145843    -1.10686142
H       5.58178018     5.30288967    -2.82139219
18 
# or11: geometry number 5. C2-H17 distance: 6 
C      -0.44842159     7.51019030     2.78328247
C       0.71835981     7.69746292     3.73323327
N       0.97107409     6.65137137     4.57067044
O       1.39064485     8.71003726     3.74131866
H       1.76084424     6.71531680     5.19128841
H       0.43657693     5.80252482     4.54728658
H      -1.05872276     8.41193584     2.80194272
H      -0.05576938     7.39772634     1.77125751
H      -1.06974886     6.64575057     3.01848066
C       5.19403156     5.20130894    -1.16813739
C       6.60739640     5.48590897    -0.69881470
N       7.40115420     6.25385088    -1.49857620
O       6.99896969     5.03395877     0.35936945
H       8.37269389     6.47756634    -1.22507296
H       7.03342647     6.62105868    -2.39226368
H       5.06906601     4.11926964    -1.23595159
H       4.49785299     5.57517336    -0.41541932
H       4.95186464     5.65660460    -2.12995009
18 
# or11: geometry number 6. C2-H17 distance: 5 
C      -0.44842159     7.51019030     2.78328247
C       0.71835981     7.69746292     3.73323327
N       0.97107409     6.65137137     4.57067044
O       1.39064485     8.71003726     3.74131866
H       1.76084424     6.71531680     5.19128841
H       0.43657693     5.80252482     4.54728658
H      -1.05872276     8.41193584     2.80194272
H      -0.05576938     7.39772634     1.77125751
H      -1.06974886     6.64575057     3.01848066
C       4.56411603     5.55502387    -0.47669529
C       5.97748087     5.83962390    -0.00737260
N       6.77123867     6.60756581    -0.80713410
O       6.36905416     5.38767370     1.05081155
H       7.74277836     6.83128127    -0.53363086
H       6.40351094     6.97477361    -1.70082158
H       4.43915048     4.47298457    -0.54450949
H       3.86793746     5.92888829     0.27602278
H       4.32194911     6.01031953    -1.43850799
18 
# or11: geometry number 7. C2-H17 distance: 4.5 
C      -0.44842159     7.51019030     2.78328247
C       0.71835981     7.69746292     3.73323327
N       0.97107409     6.65137137     4.57067044
O       1.39064485     8.71003726     3.74131866
H       1.76084424     6.71531680     5.19128841
H       0.43657693     5.80252482     4.54728658
H      -1.05872276     8.41193584     2.80194272
H      -0.05576938     7.39772634     1.77125751
H      -1.06974886     6.64575057     3.01848066
C       4.24915827     5.73188133    -0.13097424
C       5.66252311     6.01648136     0.33834845
N       6.45628091     6.78442327    -0.46141305
O       6.05409640     5.56453116     1.39653260
H       7.42782060     7.00813873    -0.18790981
H       6.08855318     7.15163107    -1.35510053
H       4.12419272     4.64984203    -0.19878844
H       3.55297970     6.10574575     0.62174383
H       4.00699135     6.18717699    -1.09278694
18 
# or11: geometry number 8. C2-H17 distance: 4 
C      -0.44842159     7.51019030     2.78328247
C       0.71835981     7.69746292     3.73323327
N       0.97107409     6.65137137     4.57067044
O       1.39064485     8.71003726     3.74131866
H       1.76084424     6.71531680     5.19128841
H       0.43657693     5.80252482     4.54728658
H      -1.05872276     8.41193584     2.80194272
H      -0.05576938     7.39772634     1.77125751
H      -1.06974886     6.64575057     3.01848066
C       3.93420050     5.90873879     0.21474681
C       5.34756534     6.19333882     0.68406950
N       6.14132314     6.96128073    -0.11569200
O       5.73913863     5.74138862     1.74225365
H       7.11286283     7.18499619     0.15781124
H       5.77359541     7.32848853    -1.00937948
H       3.80923495     4.82669949     0.14693261
H       3.23802193     6.28260321     0.96746488
H       3.69203358     6.36403445    -0.74706589
18 
# or11: geometry number 9. C2-H17 distance: 3.7 
C      -0.44842159     7.51019030     2.78328247
C       0.71835981     7.69746292     3.73323327
N       0.97107409     6.65137137     4.57067044
O       1.39064485     8.71003726     3.74131866
H       1.76084424     6.71531680     5.19128841
H       0.43657693     5.80252482     4.54728658
H      -1.05872276     8.41193584     2.80194272
H      -0.05576938     7.39772634     1.77125751
H      -1.06974886     6.64575057     3.01848066
C       3.74522584     6.01485327     0.42217944
C       5.15859068     6.29945330     0.89150213
N       5.95234848     7.06739521     0.09174063
O       5.55016397     5.84750310     1.94968628
H       6.92388817     7.29111067     0.36524387
H       5.58462075     7.43460301    -0.80194685
H       3.62026029     4.93281397     0.35436524
H       3.04904727     6.38871769     1.17489751
H       3.50305892     6.47014893    -0.53963326
18 
# or11: geometry number 10. C2-H17 distance: 3.4 
C      -0.44842159     7.51019030     2.78328247
C       0.71835981     7.69746292     3.73323327
N       0.97107409     6.65137137     4.57067044
O       1.39064485     8.71003726     3.74131866
H       1.76084424     6.71531680     5.19128841
H       0.43657693     5.80252482     4.54728658
H      -1.05872276     8.41193584     2.80194272
H      -0.05576938     7.39772634     1.77125751
H      -1.06974886     6.64575057     3.01848066
C       3.55625118     6.12096775     0.62961207
C       4.96961602     6.40556778     1.09893476
N       5.76337382     7.17350969     0.29917326
O       5.36118931     5.95361758     2.15711891
H       6.73491351     7.39722515     0.57267650
H       5.39564609     7.54071749    -0.59451422
H       3.43128563     5.03892845     0.56179787
H       2.86007261     6.49483217     1.38233014
H       3.31408426     6.57626341    -0.33220063
18 
# or11: geometry number 11. C2-H17 distance: 3.1 
C      -0.44842159     7.51019030     2.78328247
C       0.71835981     7.69746292     3.73323327
N       0.97107409     6.65137137     4.57067044
O       1.39064485     8.71003726     3.74131866
H       1.76084424     6.71531680     5.19128841
H       0.43657693     5.80252482     4.54728658
H      -1.05872276     8.41193584     2.80194272
H      -0.05576938     7.39772634     1.77125751
H      -1.06974886     6.64575057     3.01848066
C       3.36727653     6.22708223     0.83704470
C       4.78064137     6.51168226     1.30636739
N       5.57439917     7.27962417     0.50660589
O       5.17221466     6.05973206     2.36455154
H       6.54593886     7.50333963     0.78010913
H       5.20667144     7.64683197    -0.38708159
H       3.24231098     5.14504293     0.76923050
H       2.67109796     6.60094665     1.58976277
H       3.12510961     6.68237789    -0.12476800
18 
# or11: geometry number 12. C2-H17 distance: 2.9 
C      -0.44842159     7.51019030     2.78328247
C       0.71835981     7.69746292     3.73323327
N       0.97107409     6.65137137     4.57067044
O       1.39064485     8.71003726     3.74131866
H       1.76084424     6.71531680     5.19128841
H       0.43657693     5.80252482     4.54728658
H      -1.05872276     8.41193584     2.80194272
H      -0.05576938     7.39772634     1.77125751
H      -1.06974886     6.64575057     3.01848066
C       3.24129342     6.29782521     0.97533312
C       4.65465826     6.58242524     1.44465581
N       5.44841606     7.35036715     0.64489431
O       5.04623155     6.13047504     2.50283996
H       6.41995575     7.57408261     0.91839755
H       5.08068833     7.71757495    -0.24879317
H       3.11632787     5.21578591     0.90751892
H       2.54511485     6.67168963     1.72805119
H       2.99912650     6.75312087     0.01352042
18 
# or11: geometry number 13. C2-H17 distance: 2.7 
C      -0.44842159     7.51019030     2.78328247
C       0.71835981     7.69746292     3.73323327
N       0.97107409     6.65137137     4.57067044
O       1.39064485     8.71003726     3.74131866
H       1.76084424     6.71531680     5.19128841
H       0.43657693     5.80252482     4.54728658
H      -1.05872276     8.41193584     2.80194272
H      -0.05576938     7.39772634     1.77125751
H      -1.06974886     6.64575057     3.01848066
C       3.11531031     6.36856820     1.11362154
C       4.52867515     6.65316823     1.58294423
N       5.32243295     7.42111014     0.78318273
O       4.92024844     6.20121803     2.64112838
H       6.29397264     7.64482560     1.05668597
H       4.95470522     7.78831794    -0.11050475
H       2.99034476     5.28652890     1.04580734
H       2.41913174     6.74243262     1.86633961
H       2.87314339     6.82386386     0.15180884
18 
# or11: geometry number 14. C2-H17 distance: 2.5 
C      -0.44842159     7.51019030     2.78328247
C       0.71835981     7.69746292     3.73323327
N       0.97107409     6.65137137     4.57067044
O       1.39064485     8.71003726     3.74131866
H       1.76084424     6.71531680     5.19128841
H       0.43657693     5.80252482     4.54728658
H      -1.05872276     8.41193584     2.80194272
H      -0.05576938     7.39772634     1.77125751
H      -1.06974886     6.64575057     3.01848066
C       2.98932721     6.43931118     1.25190996
C       4.40269205     6.72391121     1.72123265
N       5.19644985     7.49185312     0.92147115
O       4.79426534     6.27196101     2.77941680
H       6.16798954     7.71556858     1.19497439
H       4.82872212     7.85906092     0.02778367
H       2.86436166     5.35727188     1.18409576
H       2.29314864     6.81317560     2.00462803
H       2.74716029     6.89460684     0.29009726
18 
# or11: geometry number 15. C2-H17 distance: 2.4 
C      -0.44842159     7.51019030     2.78328247
C       0.71835981     7.69746292     3.73323327
N       0.97107409     6.65137137     4.57067044
O       1.39064485     8.71003726     3.74131866
H       1.76084424     6.71531680     5.19128841
H       0.43657693     5.80252482     4.54728658
H      -1.05872276     8.41193584     2.80194272
H      -0.05576938     7.39772634     1.77125751
H      -1.06974886     6.64575057     3.01848066
C       2.92633565     6.47468268     1.32105416
C       4.33970049     6.75928271     1.79037685
N       5.13345829     7.52722462     0.99061535
O       4.73127378     6.30733251     2.84856100
H       6.10499798     7.75094008     1.26411859
H       4.76573056     7.89443242     0.09692787
H       2.80137010     5.39264338     1.25323996
H       2.23015708     6.84854710     2.07377223
H       2.68416873     6.92997834     0.35924146
18 
# or11: geometry number 16. C2-H17 distance: 2.3 
C      -0.44842159     7.51019030     2.78328247
C       0.71835981     7.69746292     3.73323327
N       0.97107409     6.65137137     4.57067044
O       1.39064485     8.71003726     3.74131866
H       1.76084424     6.71531680     5.19128841
H       0.43657693     5.80252482     4.54728658
H      -1.05872276     8.41193584     2.80194272
H      -0.05576938     7.39772634     1.77125751
H      -1.06974886     6.64575057     3.01848066
C       2.86334410     6.51005417     1.39019837
C       4.27670894     6.79465420     1.85952106
N       5.07046674     7.56259611     1.05975956
O       4.66828223     6.34270400     2.91770521
H       6.04200643     7.78631157     1.33326280
H       4.70273901     7.92980391     0.16607208
H       2.73837855     5.42801487     1.32238417
H       2.16716553     6.88391859     2.14291644
H       2.62117718     6.96534983     0.42838567
18 
# or11: geometry number 17. C2-H17 distance: 2.2 
C      -0.44842159     7.51019030     2.78328247
C       0.71835981     7.69746292     3.73323327
N       0.97107409     6.65137137     4.57067044
O       1.39064485     8.71003726     3.74131866
H       1.76084424     6.71531680     5.19128841
H       0.43657693     5.80252482     4.54728658
H      -1.05872276     8.41193584     2.80194272
H      -0.05576938     7.39772634     1.77125751
H      -1.06974886     6.64575057     3.01848066
C       2.80035255     6.54542566     1.45934258
C       4.21371739     6.83002569     1.92866527
N       5.00747519     7.59796760     1.12890377
O       4.60529068     6.37807549     2.98684942
H       5.97901488     7.82168306     1.40240701
H       4.63974746     7.96517540     0.23521629
H       2.67538700     5.46338636     1.39152838
H       2.10417398     6.91929008     2.21206065
H       2.55818563     7.00072132     0.49752988
18 
# or11: geometry number 18. C2-H17 distance: 2.1 
C      -0.44842159     7.51019030     2.78328247
C       0.71835981     7.69746292     3.73323327
N       0.97107409     6.65137137     4.57067044
O       1.39064485     8.71003726     3.74131866
H       1.76084424     6.71531680     5.19128841
H       0.43657693     5.80252482     4.54728658
H      -1.05872276     8.41193584     2.80194272
H      -0.05576938     7.39772634     1.77125751
H      -1.06974886     6.64575057     3.01848066
C       2.73736099     6.58079715     1.52848679
C       4.15072583     6.86539718     1.99780948
N       4.94448363     7.63333909     1.19804798
O       4.54229912     6.41344698     3.05599363
H       5.91602332     7.85705455     1.47155122
H       4.57675590     8.00054689     0.30436050
H       2.61239544     5.49875785     1.46067259
H       2.04118242     6.95466157     2.28120486
H       2.49519407     7.03609281     0.56667409
18 
# or11: geometry number 19. C2-H17 distance: 2.0 
C      -0.44842159     7.51019030     2.78328247
C       0.71835981     7.69746292     3.73323327
N       0.97107409     6.65137137     4.57067044
O       1.39064485     8.71003726     3.74131866
H       1.76084424     6.71531680     5.19128841
H       0.43657693     5.80252482     4.54728658
H      -1.05872276     8.41193584     2.80194272
H      -0.05576938     7.39772634     1.77125751
H      -1.06974886     6.64575057     3.01848066
C       2.67436944     6.61616865     1.59763100
C       4.08773428     6.90076868     2.06695369
N       4.88149208     7.66871059     1.26719219
O       4.47930757     6.44881848     3.12513784
H       5.85303177     7.89242605     1.54069543
H       4.51376435     8.03591839     0.37350471
H       2.54940389     5.53412935     1.52981680
H       1.97819087     6.99003307     2.35034907
H       2.43220252     7.07146431     0.63581830
18 
# or11: geometry number 20. C2-H17 distance: 1.9 
C      -0.44842159     7.51019030     2.78328247
C       0.71835981     7.69746292     3.73323327
N       0.97107409     6.65137137     4.57067044
O       1.39064485     8.71003726     3.74131866
H       1.76084424     6.71531680     5.19128841
H       0.43657693     5.80252482     4.54728658
H      -1.05872276     8.41193584     2.80194272
H      -0.05576938     7.39772634     1.77125751
H      -1.06974886     6.64575057     3.01848066
C       2.61137789     6.65154014     1.66677521
C       4.02474273     6.93614017     2.13609790
N       4.81850053     7.70408208     1.33633640
O       4.41631602     6.48418997     3.19428205
H       5.79004022     7.92779754     1.60983964
H       4.45077280     8.07128988     0.44264892
H       2.48641234     5.56950084     1.59896101
H       1.91519932     7.02540456     2.41949328
H       2.36921097     7.10683580     0.70496251
18 
# or11: geometry number 21. C2-H17 distance: 1.8 
C      -0.44842159     7.51019030     2.78328247
C       0.71835981     7.69746292     3.73323327
N       0.97107409     6.65137137     4.57067044
O       1.39064485     8.71003726     3.74131866
H       1.76084424     6.71531680     5.19128841
H       0.43657693     5.80252482     4.54728658
H      -1.05872276     8.41193584     2.80194272
H      -0.05576938     7.39772634     1.77125751
H      -1.06974886     6.64575057     3.01848066
C       2.54838634     6.68691163     1.73591942
C       3.96175118     6.97151166     2.20524211
N       4.75550898     7.73945357     1.40548061
O       4.35332447     6.51956146     3.26342626
H       5.72704867     7.96316903     1.67898385
H       4.38778125     8.10666137     0.51179313
H       2.42342079     5.60487233     1.66810522
H       1.85220777     7.06077605     2.48863749
H       2.30621942     7.14220729     0.77410672
18 
# or11: geometry number 22. C2-H17 distance: 1.75 
C      -0.44842159     7.51019030     2.78328247
C       0.71835981     7.69746292     3.73323327
N       0.97107409     6.65137137     4.57067044
O       1.39064485     8.71003726     3.74131866
H       1.76084424     6.71531680     5.19128841
H       0.43657693     5.80252482     4.54728658
H      -1.05872276     8.41193584     2.80194272
H      -0.05576938     7.39772634     1.77125751
H      -1.06974886     6.64575057     3.01848066
C       2.51689056     6.70459738     1.77049153
C       3.93025540     6.98919741     2.23981422
N       4.72401320     7.75713932     1.44005272
O       4.32182869     6.53724721     3.29799837
H       5.69555289     7.98085478     1.71355596
H       4.35628547     8.12434712     0.54636524
H       2.39192501     5.62255808     1.70267733
H       1.82071199     7.07846180     2.52320960
H       2.27472364     7.15989304     0.80867883
18 
# or11: geometry number 23. C2-H17 distance: 1.7 
C      -0.44842159     7.51019030     2.78328247
C       0.71835981     7.69746292     3.73323327
N       0.97107409     6.65137137     4.57067044
O       1.39064485     8.71003726     3.74131866
H       1.76084424     6.71531680     5.19128841
H       0.43657693     5.80252482     4.54728658
H      -1.05872276     8.41193584     2.80194272
H      -0.05576938     7.39772634     1.77125751
H      -1.06974886     6.64575057     3.01848066
C       2.48539478     6.72228312     1.80506363
C       3.89875962     7.00688315     2.27438632
N       4.69251742     7.77482506     1.47462482
O       4.29033291     6.55493295     3.33257047
H       5.66405711     7.99854052     1.74812806
H       4.32478969     8.14203286     0.58093734
H       2.36042923     5.64024382     1.73724943
H       1.78921621     7.09614754     2.55778170
H       2.24322786     7.17757878     0.84325093
18 
# or11: geometry number 24. C2-H17 distance: 1.65 
C      -0.44842159     7.51019030     2.78328247
C       0.71835981     7.69746292     3.73323327
N       0.97107409     6.65137137     4.57067044
O       1.39064485     8.71003726     3.74131866
H       1.76084424     6.71531680     5.19128841
H       0.43657693     5.80252482     4.54728658
H      -1.05872276     8.41193584     2.80194272
H      -0.05576938     7.39772634     1.77125751
H      -1.06974886     6.64575057     3.01848066
C       2.45389901     6.73996887     1.83963574
C       3.86726385     7.02456890     2.30895843
N       4.66102165     7.79251081     1.50919693
O       4.25883714     6.57261870     3.36714258
H       5.63256134     8.01622627     1.78270017
H       4.29329392     8.15971861     0.61550945
H       2.32893346     5.65792957     1.77182154
H       1.75772044     7.11383329     2.59235381
H       2.21173209     7.19526453     0.87782304
18 
# or11: geometry number 25. C2-H17 distance: 1.6 
C      -0.44842159     7.51019030     2.78328247
C       0.71835981     7.69746292     3.73323327
N       0.97107409     6.65137137     4.57067044
O       1.39064485     8.71003726     3.74131866
H       1.76084424     6.71531680     5.19128841
H       0.43657693     5.80252482     4.54728658
H      -1.05872276     8.41193584     2.80194272
H      -0.05576938     7.39772634     1.77125751
H      -1.06974886     6.64575057     3.01848066
C       2.42240323     6.75765462     1.87420784
C       3.83576807     7.04225465     2.34353053
N       4.62952587     7.81019656     1.54376903
O       4.22734136     6.59030445     3.40171468
H       5.60106556     8.03391202     1.81727227
H       4.26179814     8.17740436     0.65008155
H       2.29743768     5.67561532     1.80639364
H       1.72622466     7.13151904     2.62692591
H       2.18023631     7.21295028     0.91239514
18 
# or11: geometry number 26. C2-H17 distance: 1.55 
C      -0.44842159     7.51019030     2.78328247
C       0.71835981     7.69746292     3.73323327
N       0.97107409     6.65137137     4.57067044
O       1.39064485     8.71003726     3.74131866
H       1.76084424     6.71531680     5.19128841
H       0.43657693     5.80252482     4.54728658
H      -1.05872276     8.41193584     2.80194272
H      -0.05576938     7.39772634     1.77125751
H      -1.06974886     6.64575057     3.01848066
C       2.39090745     6.77534036     1.90877995
C       3.80427229     7.05994039     2.37810264
N       4.59803009     7.82788230     1.57834114
O       4.19584558     6.60799019     3.43628679
H       5.56956978     8.05159776     1.85184438
H       4.23030236     8.19509010     0.68465366
H       2.26594190     5.69330106     1.84096575
H       1.69472888     7.14920478     2.66149802
H       2.14874053     7.23063602     0.94696725
18 
# or11: geometry number 27. C2-H17 distance: 1.5 
C      -0.44842159     7.51019030     2.78328247
C       0.71835981     7.69746292     3.73323327
N       0.97107409     6.65137137     4.57067044
O       1.39064485     8.71003726     3.74131866
H       1.76084424     6.71531680     5.19128841
H       0.43657693     5.80252482     4.54728658
H      -1.05872276     8.41193584     2.80194272
H      -0.05576938     7.39772634     1.77125751
H      -1.06974886     6.64575057     3.01848066
C       2.35941168     6.79302611     1.94335205
C       3.77277652     7.07762614     2.41267474
N       4.56653432     7.84556805     1.61291324
O       4.16434981     6.62567594     3.47085889
H       5.53807401     8.06928351     1.88641648
H       4.19880659     8.21277585     0.71922576
H       2.23444613     5.71098681     1.87553785
H       1.66323311     7.16689053     2.69607012
H       2.11724476     7.24832177     0.98153935
18 
# or11: geometry number 28. C2-H17 distance: 1.45 
C      -0.44842159     7.51019030     2.78328247
C       0.71835981     7.69746292     3.73323327
N       0.97107409     6.65137137     4.57067044
O       1.39064485     8.71003726     3.74131866
H       1.76084424     6.71531680     5.19128841
H       0.43657693     5.80252482     4.54728658
H      -1.05872276     8.41193584     2.80194272
H      -0.05576938     7.39772634     1.77125751
H      -1.06974886     6.64575057     3.01848066
C       2.32791590     6.81071186     1.97792416
C       3.74128074     7.09531189     2.44724685
N       4.53503854     7.86325380     1.64748535
O       4.13285403     6.64336169     3.50543100
H       5.50657823     8.08696926     1.92098859
H       4.16731081     8.23046160     0.75379787
H       2.20295035     5.72867256     1.91010996
H       1.63173733     7.18457628     2.73064223
H       2.08574898     7.26600752     1.01611146
18 
# or11: geometry number 29. C2-H17 distance: 1.4 
C      -0.44842159     7.51019030     2.78328247
C       0.71835981     7.69746292     3.73323327
N       0.97107409     6.65137137     4.57067044
O       1.39064485     8.71003726     3.74131866
H       1.76084424     6.71531680     5.19128841
H       0.43657693     5.80252482     4.54728658
H      -1.05872276     8.41193584     2.80194272
H      -0.05576938     7.39772634     1.77125751
H      -1.06974886     6.64575057     3.01848066
C       2.29642012     6.82839760     2.01249626
C       3.70978496     7.11299763     2.48181895
N       4.50354276     7.88093954     1.68205745
O       4.10135825     6.66104743     3.54000310
H       5.47508245     8.10465500     1.95556069
H       4.13581503     8.24814734     0.78836997
H       2.17145457     5.74635830     1.94468206
H       1.60024155     7.20226202     2.76521433
H       2.05425320     7.28369326     1.05068356
