18 
# or17: geometry number 1. O4-H14 distance: 10 
C      -0.07388124     7.86906337     4.80723359
C       0.74676154     6.61665126     5.04569898
N       0.48793878     5.95440066     6.20927449
O       1.57458106     6.22321994     4.24740956
H       0.98081787     5.09588917     6.39099072
H      -0.21472085     6.25994952     6.85710459
H       0.59414289     8.66373719     4.47829888
H      -0.77764036     7.67222128     3.99668149
H      -0.63002493     8.20132153     5.68412042
C      11.25181808     2.37299551    -4.09880411
C      10.37927517     2.90066168    -2.97670857
N       9.04866395     2.60464783    -3.01212396
O      10.87125853     3.56390106    -2.08485195
H       8.41006309     2.94000733    -2.27153977
H       8.66573666     2.03753558    -3.78703877
H      11.73382043     3.22339483    -4.58410706
H      12.03182138     1.74538775    -3.66437684
H      10.70456190     1.79158264    -4.84277479
18 
# or17: geometry number 2. O4-H14 distance: 9 
C      -0.07388124     7.86906337     4.80723359
C       0.74676154     6.61665126     5.04569898
N       0.48793878     5.95440066     6.20927449
O       1.57458106     6.22321994     4.24740956
H       0.98081787     5.09588917     6.39099072
H      -0.21472085     6.25994952     6.85710459
H       0.59414289     8.66373719     4.47829888
H      -0.77764036     7.67222128     3.99668149
H      -0.63002493     8.20132153     5.68412042
C      10.56826987     2.70131677    -3.44690918
C       9.69572696     3.22898294    -2.32481364
N       8.36511574     2.93296909    -2.36022903
O      10.18771032     3.89222232    -1.43295702
H       7.72651488     3.26832859    -1.61964484
H       7.98218845     2.36585684    -3.13514384
H      11.05027222     3.55171609    -3.93221213
H      11.34827317     2.07370901    -3.01248191
H      10.02101369     2.11990390    -4.19087986
18 
# or17: geometry number 3. O4-H14 distance: 8 
C      -0.07388124     7.86906337     4.80723359
C       0.74676154     6.61665126     5.04569898
N       0.48793878     5.95440066     6.20927449
O       1.57458106     6.22321994     4.24740956
H       0.98081787     5.09588917     6.39099072
H      -0.21472085     6.25994952     6.85710459
H       0.59414289     8.66373719     4.47829888
H      -0.77764036     7.67222128     3.99668149
H      -0.63002493     8.20132153     5.68412042
C       9.88472167     3.02963803    -2.79501425
C       9.01217876     3.55730420    -1.67291871
N       7.68156754     3.26129035    -1.70833410
O       9.50416212     4.22054358    -0.78106209
H       7.04296668     3.59664985    -0.96774991
H       7.29864025     2.69417810    -2.48324891
H      10.36672402     3.88003735    -3.28031720
H      10.66472497     2.40203027    -2.36058698
H       9.33746549     2.44822516    -3.53898493
18 
# or17: geometry number 4. O4-H14 distance: 7 
C      -0.07388124     7.86906337     4.80723359
C       0.74676154     6.61665126     5.04569898
N       0.48793878     5.95440066     6.20927449
O       1.57458106     6.22321994     4.24740956
H       0.98081787     5.09588917     6.39099072
H      -0.21472085     6.25994952     6.85710459
H       0.59414289     8.66373719     4.47829888
H      -0.77764036     7.67222128     3.99668149
H      -0.63002493     8.20132153     5.68412042
C       9.20117347     3.35795929    -2.14311931
C       8.32863056     3.88562546    -1.02102377
N       6.99801934     3.58961161    -1.05643916
O       8.82061392     4.54886484    -0.12916715
H       6.35941848     3.92497111    -0.31585497
H       6.61509205     3.02249936    -1.83135397
H       9.68317582     4.20835861    -2.62842226
H       9.98117677     2.73035153    -1.70869204
H       8.65391729     2.77654642    -2.88708999
18 
# or17: geometry number 5. O4-H14 distance: 6 
C      -0.07388124     7.86906337     4.80723359
C       0.74676154     6.61665126     5.04569898
N       0.48793878     5.95440066     6.20927449
O       1.57458106     6.22321994     4.24740956
H       0.98081787     5.09588917     6.39099072
H      -0.21472085     6.25994952     6.85710459
H       0.59414289     8.66373719     4.47829888
H      -0.77764036     7.67222128     3.99668149
H      -0.63002493     8.20132153     5.68412042
C       8.51762527     3.68628055    -1.49122438
C       7.64508236     4.21394672    -0.36912884
N       6.31447114     3.91793287    -0.40454423
O       8.13706572     4.87718610     0.52272778
H       5.67587028     4.25329237     0.33603996
H       5.93154385     3.35082062    -1.17945904
H       8.99962762     4.53667987    -1.97652733
H       9.29762857     3.05867279    -1.05679711
H       7.97036909     3.10486768    -2.23519506
18 
# or17: geometry number 6. O4-H14 distance: 5 
C      -0.07388124     7.86906337     4.80723359
C       0.74676154     6.61665126     5.04569898
N       0.48793878     5.95440066     6.20927449
O       1.57458106     6.22321994     4.24740956
H       0.98081787     5.09588917     6.39099072
H      -0.21472085     6.25994952     6.85710459
H       0.59414289     8.66373719     4.47829888
H      -0.77764036     7.67222128     3.99668149
H      -0.63002493     8.20132153     5.68412042
C       7.83407706     4.01460181    -0.83932945
C       6.96153415     4.54226798     0.28276609
N       5.63092293     4.24625413     0.24735070
O       7.45351751     5.20550736     1.17462271
H       4.99232207     4.58161363     0.98793489
H       5.24799564     3.67914188    -0.52756411
H       8.31607941     4.86500113    -1.32463240
H       8.61408036     3.38699405    -0.40490218
H       7.28682088     3.43318894    -1.58330013
18 
# or17: geometry number 7. O4-H14 distance: 4.5 
C      -0.07388124     7.86906337     4.80723359
C       0.74676154     6.61665126     5.04569898
N       0.48793878     5.95440066     6.20927449
O       1.57458106     6.22321994     4.24740956
H       0.98081787     5.09588917     6.39099072
H      -0.21472085     6.25994952     6.85710459
H       0.59414289     8.66373719     4.47829888
H      -0.77764036     7.67222128     3.99668149
H      -0.63002493     8.20132153     5.68412042
C       7.49230296     4.17876245    -0.51338198
C       6.61976005     4.70642862     0.60871356
N       5.28914883     4.41041477     0.57329817
O       7.11174341     5.36966800     1.50057018
H       4.65054797     4.74577427     1.31388236
H       4.90622154     3.84330252    -0.20161664
H       7.97430531     5.02916177    -0.99868493
H       8.27230626     3.55115469    -0.07895471
H       6.94504678     3.59734958    -1.25735266
18 
# or17: geometry number 8. O4-H14 distance: 4 
C      -0.07388124     7.86906337     4.80723359
C       0.74676154     6.61665126     5.04569898
N       0.48793878     5.95440066     6.20927449
O       1.57458106     6.22321994     4.24740956
H       0.98081787     5.09588917     6.39099072
H      -0.21472085     6.25994952     6.85710459
H       0.59414289     8.66373719     4.47829888
H      -0.77764036     7.67222128     3.99668149
H      -0.63002493     8.20132153     5.68412042
C       7.15052886     4.34292308    -0.18743451
C       6.27798595     4.87058925     0.93466103
N       4.94737473     4.57457540     0.89924564
O       6.76996931     5.53382863     1.82651765
H       4.30877387     4.90993490     1.63982983
H       4.56444744     4.00746315     0.12433083
H       7.63253121     5.19332240    -0.67273746
H       7.93053216     3.71531532     0.24699276
H       6.60327268     3.76151021    -0.93140519
18 
# or17: geometry number 9. O4-H14 distance: 3.7 
C      -0.07388124     7.86906337     4.80723359
C       0.74676154     6.61665126     5.04569898
N       0.48793878     5.95440066     6.20927449
O       1.57458106     6.22321994     4.24740956
H       0.98081787     5.09588917     6.39099072
H      -0.21472085     6.25994952     6.85710459
H       0.59414289     8.66373719     4.47829888
H      -0.77764036     7.67222128     3.99668149
H      -0.63002493     8.20132153     5.68412042
C       6.94546440     4.44141945     0.00813397
C       6.07292149     4.96908562     1.13022951
N       4.74231027     4.67307177     1.09481412
O       6.56490485     5.63232500     2.02208613
H       4.10370941     5.00843127     1.83539831
H       4.35938298     4.10595952     0.31989931
H       7.42746675     5.29181877    -0.47716898
H       7.72546770     3.81381169     0.44256124
H       6.39820822     3.86000658    -0.73583671
18 
# or17: geometry number 10. O4-H14 distance: 3.4 
C      -0.07388124     7.86906337     4.80723359
C       0.74676154     6.61665126     5.04569898
N       0.48793878     5.95440066     6.20927449
O       1.57458106     6.22321994     4.24740956
H       0.98081787     5.09588917     6.39099072
H      -0.21472085     6.25994952     6.85710459
H       0.59414289     8.66373719     4.47829888
H      -0.77764036     7.67222128     3.99668149
H      -0.63002493     8.20132153     5.68412042
C       6.74039994     4.53991583     0.20370245
C       5.86785703     5.06758200     1.32579799
N       4.53724581     4.77156815     1.29038260
O       6.35984039     5.73082138     2.21765461
H       3.89864495     5.10692765     2.03096679
H       4.15431852     4.20445590     0.51546779
H       7.22240229     5.39031515    -0.28160050
H       7.52040324     3.91230807     0.63812972
H       6.19314376     3.95850296    -0.54026823
18 
# or17: geometry number 11. O4-H14 distance: 3.1 
C      -0.07388124     7.86906337     4.80723359
C       0.74676154     6.61665126     5.04569898
N       0.48793878     5.95440066     6.20927449
O       1.57458106     6.22321994     4.24740956
H       0.98081787     5.09588917     6.39099072
H      -0.21472085     6.25994952     6.85710459
H       0.59414289     8.66373719     4.47829888
H      -0.77764036     7.67222128     3.99668149
H      -0.63002493     8.20132153     5.68412042
C       6.53533548     4.63841221     0.39927093
C       5.66279257     5.16607838     1.52136647
N       4.33218135     4.87006453     1.48595108
O       6.15477593     5.82931776     2.41322309
H       3.69358049     5.20542403     2.22653527
H       3.94925406     4.30295228     0.71103627
H       7.01733783     5.48881153    -0.08603202
H       7.31533878     4.01080445     0.83369820
H       5.98807930     4.05699934    -0.34469975
18 
# or17: geometry number 12. O4-H14 distance: 2.9 
C      -0.07388124     7.86906337     4.80723359
C       0.74676154     6.61665126     5.04569898
N       0.48793878     5.95440066     6.20927449
O       1.57458106     6.22321994     4.24740956
H       0.98081787     5.09588917     6.39099072
H      -0.21472085     6.25994952     6.85710459
H       0.59414289     8.66373719     4.47829888
H      -0.77764036     7.67222128     3.99668149
H      -0.63002493     8.20132153     5.68412042
C       6.39862584     4.70407646     0.52964991
C       5.52608293     5.23174263     1.65174545
N       4.19547171     4.93572878     1.61633006
O       6.01806629     5.89498201     2.54360207
H       3.55687085     5.27108828     2.35691425
H       3.81254442     4.36861653     0.84141525
H       6.88062819     5.55447578     0.04434696
H       7.17862914     4.07646870     0.96407718
H       5.85136966     4.12266359    -0.21432077
18 
# or17: geometry number 13. O4-H14 distance: 2.7 
C      -0.07388124     7.86906337     4.80723359
C       0.74676154     6.61665126     5.04569898
N       0.48793878     5.95440066     6.20927449
O       1.57458106     6.22321994     4.24740956
H       0.98081787     5.09588917     6.39099072
H      -0.21472085     6.25994952     6.85710459
H       0.59414289     8.66373719     4.47829888
H      -0.77764036     7.67222128     3.99668149
H      -0.63002493     8.20132153     5.68412042
C       6.26191620     4.76974072     0.66002890
C       5.38937329     5.29740689     1.78212444
N       4.05876207     5.00139304     1.74670905
O       5.88135665     5.96064627     2.67398106
H       3.42016121     5.33675254     2.48729324
H       3.67583478     4.43428079     0.97179424
H       6.74391855     5.62014004     0.17472595
H       7.04191950     4.14213296     1.09445617
H       5.71466002     4.18832785    -0.08394178
18 
# or17: geometry number 14. O4-H14 distance: 2.5 
C      -0.07388124     7.86906337     4.80723359
C       0.74676154     6.61665126     5.04569898
N       0.48793878     5.95440066     6.20927449
O       1.57458106     6.22321994     4.24740956
H       0.98081787     5.09588917     6.39099072
H      -0.21472085     6.25994952     6.85710459
H       0.59414289     8.66373719     4.47829888
H      -0.77764036     7.67222128     3.99668149
H      -0.63002493     8.20132153     5.68412042
C       6.12520656     4.83540497     0.79040789
C       5.25266365     5.36307114     1.91250343
N       3.92205243     5.06705729     1.87708804
O       5.74464701     6.02631052     2.80436005
H       3.28345157     5.40241679     2.61767223
H       3.53912514     4.49994504     1.10217323
H       6.60720891     5.68580429     0.30510494
H       6.90520986     4.20779721     1.22483516
H       5.57795038     4.25399210     0.04643721
18 
# or17: geometry number 15. O4-H14 distance: 2.4 
C      -0.07388124     7.86906337     4.80723359
C       0.74676154     6.61665126     5.04569898
N       0.48793878     5.95440066     6.20927449
O       1.57458106     6.22321994     4.24740956
H       0.98081787     5.09588917     6.39099072
H      -0.21472085     6.25994952     6.85710459
H       0.59414289     8.66373719     4.47829888
H      -0.77764036     7.67222128     3.99668149
H      -0.63002493     8.20132153     5.68412042
C       6.05685174     4.86823709     0.85559738
C       5.18430883     5.39590326     1.97769292
N       3.85369761     5.09988941     1.94227753
O       5.67629219     6.05914264     2.86954954
H       3.21509675     5.43524891     2.68286172
H       3.47077032     4.53277716     1.16736272
H       6.53885409     5.71863641     0.37029443
H       6.83685504     4.24062933     1.29002465
H       5.50959556     4.28682422     0.11162670
18 
# or17: geometry number 16. O4-H14 distance: 2.3 
C      -0.07388124     7.86906337     4.80723359
C       0.74676154     6.61665126     5.04569898
N       0.48793878     5.95440066     6.20927449
O       1.57458106     6.22321994     4.24740956
H       0.98081787     5.09588917     6.39099072
H      -0.21472085     6.25994952     6.85710459
H       0.59414289     8.66373719     4.47829888
H      -0.77764036     7.67222128     3.99668149
H      -0.63002493     8.20132153     5.68412042
C       5.98849692     4.90106922     0.92078687
C       5.11595401     5.42873539     2.04288241
N       3.78534279     5.13272154     2.00746702
O       5.60793737     6.09197477     2.93473903
H       3.14674193     5.46808104     2.74805121
H       3.40241550     4.56560929     1.23255221
H       6.47049927     5.75146854     0.43548392
H       6.76850022     4.27346146     1.35521414
H       5.44124074     4.31965635     0.17681619
18 
# or17: geometry number 17. O4-H14 distance: 2.2 
C      -0.07388124     7.86906337     4.80723359
C       0.74676154     6.61665126     5.04569898
N       0.48793878     5.95440066     6.20927449
O       1.57458106     6.22321994     4.24740956
H       0.98081787     5.09588917     6.39099072
H      -0.21472085     6.25994952     6.85710459
H       0.59414289     8.66373719     4.47829888
H      -0.77764036     7.67222128     3.99668149
H      -0.63002493     8.20132153     5.68412042
C       5.92014210     4.93390135     0.98597637
C       5.04759919     5.46156752     2.10807191
N       3.71698797     5.16555367     2.07265652
O       5.53958255     6.12480690     2.99992853
H       3.07838711     5.50091317     2.81324071
H       3.33406068     4.59844142     1.29774171
H       6.40214445     5.78430067     0.50067342
H       6.70014540     4.30629359     1.42040364
H       5.37288592     4.35248848     0.24200569
18 
# or17: geometry number 18. O4-H14 distance: 2.1 
C      -0.07388124     7.86906337     4.80723359
C       0.74676154     6.61665126     5.04569898
N       0.48793878     5.95440066     6.20927449
O       1.57458106     6.22321994     4.24740956
H       0.98081787     5.09588917     6.39099072
H      -0.21472085     6.25994952     6.85710459
H       0.59414289     8.66373719     4.47829888
H      -0.77764036     7.67222128     3.99668149
H      -0.63002493     8.20132153     5.68412042
C       5.85178728     4.96673347     1.05116586
C       4.97924437     5.49439964     2.17326140
N       3.64863315     5.19838579     2.13784601
O       5.47122773     6.15763902     3.06511802
H       3.01003229     5.53374529     2.87843020
H       3.26570586     4.63127354     1.36293120
H       6.33378963     5.81713279     0.56586291
H       6.63179058     4.33912571     1.48559313
H       5.30453110     4.38532060     0.30719518
18 
# or17: geometry number 19. O4-H14 distance: 2.0 
C      -0.07388124     7.86906337     4.80723359
C       0.74676154     6.61665126     5.04569898
N       0.48793878     5.95440066     6.20927449
O       1.57458106     6.22321994     4.24740956
H       0.98081787     5.09588917     6.39099072
H      -0.21472085     6.25994952     6.85710459
H       0.59414289     8.66373719     4.47829888
H      -0.77764036     7.67222128     3.99668149
H      -0.63002493     8.20132153     5.68412042
C       5.78343246     4.99956560     1.11635535
C       4.91088955     5.52723177     2.23845089
N       3.58027833     5.23121792     2.20303550
O       5.40287291     6.19047115     3.13030751
H       2.94167747     5.56657742     2.94361969
H       3.19735104     4.66410567     1.42812069
H       6.26543481     5.84996492     0.63105240
H       6.56343576     4.37195784     1.55078262
H       5.23617628     4.41815273     0.37238467
18 
# or17: geometry number 20. O4-H14 distance: 1.9 
C      -0.07388124     7.86906337     4.80723359
C       0.74676154     6.61665126     5.04569898
N       0.48793878     5.95440066     6.20927449
O       1.57458106     6.22321994     4.24740956
H       0.98081787     5.09588917     6.39099072
H      -0.21472085     6.25994952     6.85710459
H       0.59414289     8.66373719     4.47829888
H      -0.77764036     7.67222128     3.99668149
H      -0.63002493     8.20132153     5.68412042
C       5.71507764     5.03239772     1.18154485
C       4.84253473     5.56006389     2.30364039
N       3.51192351     5.26405004     2.26822500
O       5.33451809     6.22330327     3.19549701
H       2.87332265     5.59940954     3.00880919
H       3.12899622     4.69693779     1.49331019
H       6.19707999     5.88279704     0.69624190
H       6.49508094     4.40478996     1.61597212
H       5.16782146     4.45098485     0.43757417
18 
# or17: geometry number 21. O4-H14 distance: 1.8 
C      -0.07388124     7.86906337     4.80723359
C       0.74676154     6.61665126     5.04569898
N       0.48793878     5.95440066     6.20927449
O       1.57458106     6.22321994     4.24740956
H       0.98081787     5.09588917     6.39099072
H      -0.21472085     6.25994952     6.85710459
H       0.59414289     8.66373719     4.47829888
H      -0.77764036     7.67222128     3.99668149
H      -0.63002493     8.20132153     5.68412042
C       5.64672281     5.06522985     1.24673434
C       4.77417990     5.59289602     2.36882988
N       3.44356868     5.29688217     2.33341449
O       5.26616326     6.25613540     3.26068650
H       2.80496782     5.63224167     3.07399868
H       3.06064139     4.72976992     1.55849968
H       6.12872516     5.91562917     0.76143139
H       6.42672611     4.43762209     1.68116161
H       5.09946663     4.48381698     0.50276366
18 
# or17: geometry number 22. O4-H14 distance: 1.7 
C      -0.07388124     7.86906337     4.80723359
C       0.74676154     6.61665126     5.04569898
N       0.48793878     5.95440066     6.20927449
O       1.57458106     6.22321994     4.24740956
H       0.98081787     5.09588917     6.39099072
H      -0.21472085     6.25994952     6.85710459
H       0.59414289     8.66373719     4.47829888
H      -0.77764036     7.67222128     3.99668149
H      -0.63002493     8.20132153     5.68412042
C       5.57836799     5.09806198     1.31192383
C       4.70582508     5.62572815     2.43401937
N       3.37521386     5.32971430     2.39860398
O       5.19780844     6.28896753     3.32587599
H       2.73661300     5.66507380     3.13918817
H       2.99228657     4.76260205     1.62368917
H       6.06037034     5.94846130     0.82662088
H       6.35837129     4.47045422     1.74635110
H       5.03111181     4.51664911     0.56795315
18 
# or17: geometry number 23. O4-H14 distance: 1.6 
C      -0.07388124     7.86906337     4.80723359
C       0.74676154     6.61665126     5.04569898
N       0.48793878     5.95440066     6.20927449
O       1.57458106     6.22321994     4.24740956
H       0.98081787     5.09588917     6.39099072
H      -0.21472085     6.25994952     6.85710459
H       0.59414289     8.66373719     4.47829888
H      -0.77764036     7.67222128     3.99668149
H      -0.63002493     8.20132153     5.68412042
C       5.51001317     5.13089410     1.37711333
C       4.63747026     5.65856027     2.49920887
N       3.30685904     5.36254642     2.46379348
O       5.12945362     6.32179965     3.39106549
H       2.66825818     5.69790592     3.20437767
H       2.92393175     4.79543417     1.68887867
H       5.99201552     5.98129342     0.89181038
H       6.29001647     4.50328634     1.81154060
H       4.96275699     4.54948123     0.63314265
18 
# or17: geometry number 24. O4-H14 distance: 1.5 
C      -0.07388124     7.86906337     4.80723359
C       0.74676154     6.61665126     5.04569898
N       0.48793878     5.95440066     6.20927449
O       1.57458106     6.22321994     4.24740956
H       0.98081787     5.09588917     6.39099072
H      -0.21472085     6.25994952     6.85710459
H       0.59414289     8.66373719     4.47829888
H      -0.77764036     7.67222128     3.99668149
H      -0.63002493     8.20132153     5.68412042
C       5.44165835     5.16372623     1.44230282
C       4.56911544     5.69139240     2.56439836
N       3.23850422     5.39537855     2.52898297
O       5.06109880     6.35463178     3.45625498
H       2.59990336     5.73073805     3.26956716
H       2.85557693     4.82826630     1.75406816
H       5.92366070     6.01412555     0.95699987
H       6.22166165     4.53611847     1.87673009
H       4.89440217     4.58231336     0.69833214
18 
# or17: geometry number 25. O4-H14 distance: 1.4 
C      -0.07388124     7.86906337     4.80723359
C       0.74676154     6.61665126     5.04569898
N       0.48793878     5.95440066     6.20927449
O       1.57458106     6.22321994     4.24740956
H       0.98081787     5.09588917     6.39099072
H      -0.21472085     6.25994952     6.85710459
H       0.59414289     8.66373719     4.47829888
H      -0.77764036     7.67222128     3.99668149
H      -0.63002493     8.20132153     5.68412042
C       5.37330353     5.19655835     1.50749231
C       4.50076062     5.72422452     2.62958785
N       3.17014940     5.42821067     2.59417246
O       4.99274398     6.38746390     3.52144447
H       2.53154854     5.76357017     3.33475665
H       2.78722211     4.86109842     1.81925765
H       5.85530588     6.04695767     1.02218936
H       6.15330683     4.56895059     1.94191958
H       4.82604735     4.61514548     0.76352163
18 
# or17: geometry number 26. O4-H14 distance: 1.35 
C      -0.07388124     7.86906337     4.80723359
C       0.74676154     6.61665126     5.04569898
N       0.48793878     5.95440066     6.20927449
O       1.57458106     6.22321994     4.24740956
H       0.98081787     5.09588917     6.39099072
H      -0.21472085     6.25994952     6.85710459
H       0.59414289     8.66373719     4.47829888
H      -0.77764036     7.67222128     3.99668149
H      -0.63002493     8.20132153     5.68412042
C       5.33912612     5.21297442     1.54008706
C       4.46658321     5.74064059     2.66218260
N       3.13597199     5.44462674     2.62676721
O       4.95856657     6.40387997     3.55403922
H       2.49737113     5.77998624     3.36735140
H       2.75304470     4.87751449     1.85185240
H       5.82112847     6.06337374     1.05478411
H       6.11912942     4.58536666     1.97451433
H       4.79186994     4.63156155     0.79611638
18 
# or17: geometry number 27. O4-H14 distance: 1.3 
C      -0.07388124     7.86906337     4.80723359
C       0.74676154     6.61665126     5.04569898
N       0.48793878     5.95440066     6.20927449
O       1.57458106     6.22321994     4.24740956
H       0.98081787     5.09588917     6.39099072
H      -0.21472085     6.25994952     6.85710459
H       0.59414289     8.66373719     4.47829888
H      -0.77764036     7.67222128     3.99668149
H      -0.63002493     8.20132153     5.68412042
C       5.30494871     5.22939048     1.57268181
C       4.43240580     5.75705665     2.69477735
N       3.10179458     5.46104280     2.65936196
O       4.92438916     6.42029603     3.58663397
H       2.46319372     5.79640230     3.39994615
H       2.71886729     4.89393055     1.88444715
H       5.78695106     6.07978980     1.08737886
H       6.08495201     4.60178272     2.00710908
H       4.75769253     4.64797761     0.82871113
18 
# or17: geometry number 28. O4-H14 distance: 1.25 
C      -0.07388124     7.86906337     4.80723359
C       0.74676154     6.61665126     5.04569898
N       0.48793878     5.95440066     6.20927449
O       1.57458106     6.22321994     4.24740956
H       0.98081787     5.09588917     6.39099072
H      -0.21472085     6.25994952     6.85710459
H       0.59414289     8.66373719     4.47829888
H      -0.77764036     7.67222128     3.99668149
H      -0.63002493     8.20132153     5.68412042
C       5.27077130     5.24580654     1.60527655
C       4.39822839     5.77347271     2.72737209
N       3.06761717     5.47745886     2.69195670
O       4.89021175     6.43671209     3.61922871
H       2.42901631     5.81281836     3.43254089
H       2.68468988     4.91034661     1.91704189
H       5.75277365     6.09620586     1.11997360
H       6.05077460     4.61819878     2.03970382
H       4.72351512     4.66439367     0.86130587
18 
# or17: geometry number 29. O4-H14 distance: 1.2 
C      -0.07388124     7.86906337     4.80723359
C       0.74676154     6.61665126     5.04569898
N       0.48793878     5.95440066     6.20927449
O       1.57458106     6.22321994     4.24740956
H       0.98081787     5.09588917     6.39099072
H      -0.21472085     6.25994952     6.85710459
H       0.59414289     8.66373719     4.47829888
H      -0.77764036     7.67222128     3.99668149
H      -0.63002493     8.20132153     5.68412042
C       5.23659389     5.26222261     1.63787130
C       4.36405098     5.78988878     2.75996684
N       3.03343976     5.49387493     2.72455145
O       4.85603434     6.45312816     3.65182346
H       2.39483890     5.82923443     3.46513564
H       2.65051247     4.92676268     1.94963664
H       5.71859624     6.11262193     1.15256835
H       6.01659719     4.63461485     2.07229857
H       4.68933771     4.68080974     0.89390062
