18 
# or18: geometry number 1. O4-H17 distance: 10 
C      -0.07388124     7.86906337     4.80723359
C       0.74676154     6.61665126     5.04569898
N       0.48793878     5.95440066     6.20927449
O       1.57458106     6.22321994     4.24740956
H       0.98081787     5.09588917     6.39099072
H      -0.21472085     6.25994952     6.85710459
H       0.59414289     8.66373719     4.47829888
H      -0.77764036     7.67222128     3.99668149
H      -0.63002493     8.20132153     5.68412042
C       8.64147894     2.16091773    -3.27251329
C       9.98744950     2.78747972    -2.96486993
N      10.59266219     3.51110335    -3.94949733
O      10.49188911     2.63658852    -1.86937239
H      11.51091612     3.95896589    -3.79147561
H      10.13312116     3.61782704    -4.86937486
H       8.72548697     1.08307691    -3.12342932
H       7.91026381     2.54458558    -2.55896784
H       8.28594792     2.36169709    -4.28459430
18 
# or18: geometry number 2. O4-H17 distance: 9 
C      -0.07388124     7.86906337     4.80723359
C       0.74676154     6.61665126     5.04569898
N       0.48793878     5.95440066     6.20927449
O       1.57458106     6.22321994     4.24740956
H       0.98081787     5.09588917     6.39099072
H      -0.21472085     6.25994952     6.85710459
H       0.59414289     8.66373719     4.47829888
H      -0.77764036     7.67222128     3.99668149
H      -0.63002493     8.20132153     5.68412042
C       8.00791066     2.52878117    -2.59187555
C       9.35388122     3.15534316    -2.28423219
N       9.95909391     3.87896679    -3.26885959
O       9.85832083     3.00445196    -1.18873465
H      10.87734784     4.32682933    -3.11083787
H       9.49955288     3.98569048    -4.18873712
H       8.09191869     1.45094035    -2.44279158
H       7.27669553     2.91244902    -1.87833010
H       7.65237964     2.72956053    -3.60395656
18 
# or18: geometry number 3. O4-H17 distance: 8 
C      -0.07388124     7.86906337     4.80723359
C       0.74676154     6.61665126     5.04569898
N       0.48793878     5.95440066     6.20927449
O       1.57458106     6.22321994     4.24740956
H       0.98081787     5.09588917     6.39099072
H      -0.21472085     6.25994952     6.85710459
H       0.59414289     8.66373719     4.47829888
H      -0.77764036     7.67222128     3.99668149
H      -0.63002493     8.20132153     5.68412042
C       7.37434239     2.89664460    -1.91123781
C       8.72031295     3.52320659    -1.60359445
N       9.32552564     4.24683022    -2.58822185
O       9.22475256     3.37231539    -0.50809691
H      10.24377957     4.69469276    -2.43020013
H       8.86598461     4.35355391    -3.50809938
H       7.45835042     1.81880378    -1.76215384
H       6.64312726     3.28031245    -1.19769236
H       7.01881137     3.09742396    -2.92331882
18 
# or18: geometry number 4. O4-H17 distance: 7 
C      -0.07388124     7.86906337     4.80723359
C       0.74676154     6.61665126     5.04569898
N       0.48793878     5.95440066     6.20927449
O       1.57458106     6.22321994     4.24740956
H       0.98081787     5.09588917     6.39099072
H      -0.21472085     6.25994952     6.85710459
H       0.59414289     8.66373719     4.47829888
H      -0.77764036     7.67222128     3.99668149
H      -0.63002493     8.20132153     5.68412042
C       6.74077411     3.26450804    -1.23060007
C       8.08674467     3.89107003    -0.92295671
N       8.69195736     4.61469366    -1.90758411
O       8.59118428     3.74017883     0.17254083
H       9.61021129     5.06255620    -1.74956239
H       8.23241633     4.72141735    -2.82746164
H       6.82478214     2.18666722    -1.08151610
H       6.00955898     3.64817589    -0.51705462
H       6.38524309     3.46528740    -2.24268108
18 
# or18: geometry number 5. O4-H17 distance: 6 
C      -0.07388124     7.86906337     4.80723359
C       0.74676154     6.61665126     5.04569898
N       0.48793878     5.95440066     6.20927449
O       1.57458106     6.22321994     4.24740956
H       0.98081787     5.09588917     6.39099072
H      -0.21472085     6.25994952     6.85710459
H       0.59414289     8.66373719     4.47829888
H      -0.77764036     7.67222128     3.99668149
H      -0.63002493     8.20132153     5.68412042
C       6.10720584     3.63237147    -0.54996233
C       7.45317640     4.25893346    -0.24231897
N       8.05838909     4.98255709    -1.22694637
O       7.95761601     4.10804226     0.85317857
H       8.97664302     5.43041963    -1.06892465
H       7.59884806     5.08928078    -2.14682390
H       6.19121387     2.55453065    -0.40087836
H       5.37599071     4.01603932     0.16358312
H       5.75167482     3.83315083    -1.56204334
18 
# or18: geometry number 6. O4-H17 distance: 5 
C      -0.07388124     7.86906337     4.80723359
C       0.74676154     6.61665126     5.04569898
N       0.48793878     5.95440066     6.20927449
O       1.57458106     6.22321994     4.24740956
H       0.98081787     5.09588917     6.39099072
H      -0.21472085     6.25994952     6.85710459
H       0.59414289     8.66373719     4.47829888
H      -0.77764036     7.67222128     3.99668149
H      -0.63002493     8.20132153     5.68412042
C       5.47363756     4.00023491     0.13067541
C       6.81960812     4.62679690     0.43831877
N       7.42482081     5.35042053    -0.54630863
O       7.32404773     4.47590570     1.53381631
H       8.34307474     5.79828307    -0.38828691
H       6.96527978     5.45714422    -1.46618616
H       5.55764559     2.92239409     0.27975938
H       4.74242243     4.38390276     0.84422086
H       5.11810654     4.20101427    -0.88140560
18 
# or18: geometry number 7. O4-H17 distance: 4.5 
C      -0.07388124     7.86906337     4.80723359
C       0.74676154     6.61665126     5.04569898
N       0.48793878     5.95440066     6.20927449
O       1.57458106     6.22321994     4.24740956
H       0.98081787     5.09588917     6.39099072
H      -0.21472085     6.25994952     6.85710459
H       0.59414289     8.66373719     4.47829888
H      -0.77764036     7.67222128     3.99668149
H      -0.63002493     8.20132153     5.68412042
C       5.15685343     4.18416663     0.47099428
C       6.50282399     4.81072862     0.77863764
N       7.10803668     5.53435225    -0.20598976
O       7.00726360     4.65983742     1.87413518
H       8.02629061     5.98221479    -0.04796804
H       6.64849565     5.64107594    -1.12586729
H       5.24086146     3.10632581     0.62007825
H       4.42563830     4.56783448     1.18453973
H       4.80132241     4.38494599    -0.54108673
18 
# or18: geometry number 8. O4-H17 distance: 4 
C      -0.07388124     7.86906337     4.80723359
C       0.74676154     6.61665126     5.04569898
N       0.48793878     5.95440066     6.20927449
O       1.57458106     6.22321994     4.24740956
H       0.98081787     5.09588917     6.39099072
H      -0.21472085     6.25994952     6.85710459
H       0.59414289     8.66373719     4.47829888
H      -0.77764036     7.67222128     3.99668149
H      -0.63002493     8.20132153     5.68412042
C       4.84006929     4.36809835     0.81131315
C       6.18603985     4.99466034     1.11895651
N       6.79125254     5.71828397     0.13432911
O       6.69047946     4.84376914     2.21445405
H       7.70950647     6.16614651     0.29235083
H       6.33171151     5.82500766    -0.78554842
H       4.92407732     3.29025753     0.96039712
H       4.10885416     4.75176620     1.52485860
H       4.48453827     4.56887771    -0.20076786
18 
# or18: geometry number 9. O4-H17 distance: 3.7 
C      -0.07388124     7.86906337     4.80723359
C       0.74676154     6.61665126     5.04569898
N       0.48793878     5.95440066     6.20927449
O       1.57458106     6.22321994     4.24740956
H       0.98081787     5.09588917     6.39099072
H      -0.21472085     6.25994952     6.85710459
H       0.59414289     8.66373719     4.47829888
H      -0.77764036     7.67222128     3.99668149
H      -0.63002493     8.20132153     5.68412042
C       4.64999881     4.47845738     1.01550447
C       5.99596937     5.10501937     1.32314783
N       6.60118206     5.82864300     0.33852043
O       6.50040898     4.95412817     2.41864537
H       7.51943599     6.27650554     0.49654215
H       6.14164103     5.93536669    -0.58135710
H       4.73400684     3.40061656     1.16458844
H       3.91878368     4.86212523     1.72904992
H       4.29446779     4.67923674     0.00342346
18 
# or18: geometry number 10. O4-H17 distance: 3.4 
C      -0.07388124     7.86906337     4.80723359
C       0.74676154     6.61665126     5.04569898
N       0.48793878     5.95440066     6.20927449
O       1.57458106     6.22321994     4.24740956
H       0.98081787     5.09588917     6.39099072
H      -0.21472085     6.25994952     6.85710459
H       0.59414289     8.66373719     4.47829888
H      -0.77764036     7.67222128     3.99668149
H      -0.63002493     8.20132153     5.68412042
C       4.45992832     4.58881641     1.21969579
C       5.80589888     5.21537840     1.52733915
N       6.41111157     5.93900203     0.54271175
O       6.31033849     5.06448720     2.62283669
H       7.32936550     6.38686457     0.70073347
H       5.95157054     6.04572572    -0.37716578
H       4.54393635     3.51097559     1.36877976
H       3.72871319     4.97248426     1.93324124
H       4.10439730     4.78959577     0.20761478
18 
# or18: geometry number 11. O4-H17 distance: 3.1 
C      -0.07388124     7.86906337     4.80723359
C       0.74676154     6.61665126     5.04569898
N       0.48793878     5.95440066     6.20927449
O       1.57458106     6.22321994     4.24740956
H       0.98081787     5.09588917     6.39099072
H      -0.21472085     6.25994952     6.85710459
H       0.59414289     8.66373719     4.47829888
H      -0.77764036     7.67222128     3.99668149
H      -0.63002493     8.20132153     5.68412042
C       4.26985784     4.69917544     1.42388712
C       5.61582840     5.32573743     1.73153048
N       6.22104109     6.04936106     0.74690308
O       6.12026801     5.17484623     2.82702802
H       7.13929502     6.49722360     0.90492480
H       5.76150006     6.15608475    -0.17297445
H       4.35386587     3.62133462     1.57297109
H       3.53864271     5.08284329     2.13743257
H       3.91432682     4.89995480     0.41180611
18 
# or18: geometry number 12. O4-H17 distance: 2.9 
C      -0.07388124     7.86906337     4.80723359
C       0.74676154     6.61665126     5.04569898
N       0.48793878     5.95440066     6.20927449
O       1.57458106     6.22321994     4.24740956
H       0.98081787     5.09588917     6.39099072
H      -0.21472085     6.25994952     6.85710459
H       0.59414289     8.66373719     4.47829888
H      -0.77764036     7.67222128     3.99668149
H      -0.63002493     8.20132153     5.68412042
C       4.14314419     4.77274813     1.56001466
C       5.48911475     5.39931012     1.86765802
N       6.09432744     6.12293375     0.88303062
O       5.99355436     5.24841892     2.96315556
H       7.01258137     6.57079629     1.04105234
H       5.63478641     6.22965744    -0.03684691
H       4.22715222     3.69490731     1.70909863
H       3.41192906     5.15641598     2.27356011
H       3.78761317     4.97352749     0.54793365
18 
# or18: geometry number 13. O4-H17 distance: 2.7 
C      -0.07388124     7.86906337     4.80723359
C       0.74676154     6.61665126     5.04569898
N       0.48793878     5.95440066     6.20927449
O       1.57458106     6.22321994     4.24740956
H       0.98081787     5.09588917     6.39099072
H      -0.21472085     6.25994952     6.85710459
H       0.59414289     8.66373719     4.47829888
H      -0.77764036     7.67222128     3.99668149
H      -0.63002493     8.20132153     5.68412042
C       4.01643053     4.84632081     1.69614221
C       5.36240109     5.47288280     2.00378557
N       5.96761378     6.19650643     1.01915817
O       5.86684070     5.32199160     3.09928311
H       6.88586771     6.64436897     1.17717989
H       5.50807275     6.30323012     0.09928064
H       4.10043856     3.76847999     1.84522618
H       3.28521540     5.22998866     2.40968766
H       3.66089951     5.04710017     0.68406120
18 
# or18: geometry number 14. O4-H17 distance: 2.5 
C      -0.07388124     7.86906337     4.80723359
C       0.74676154     6.61665126     5.04569898
N       0.48793878     5.95440066     6.20927449
O       1.57458106     6.22321994     4.24740956
H       0.98081787     5.09588917     6.39099072
H      -0.21472085     6.25994952     6.85710459
H       0.59414289     8.66373719     4.47829888
H      -0.77764036     7.67222128     3.99668149
H      -0.63002493     8.20132153     5.68412042
C       3.88971688     4.91989350     1.83226976
C       5.23568744     5.54645549     2.13991312
N       5.84090013     6.27007912     1.15528572
O       5.74012705     5.39556429     3.23541066
H       6.75915406     6.71794166     1.31330744
H       5.38135910     6.37680281     0.23540819
H       3.97372491     3.84205268     1.98135373
H       3.15850175     5.30356135     2.54581521
H       3.53418586     5.12067286     0.82018875
18 
# or18: geometry number 15. O4-H17 distance: 2.4 
C      -0.07388124     7.86906337     4.80723359
C       0.74676154     6.61665126     5.04569898
N       0.48793878     5.95440066     6.20927449
O       1.57458106     6.22321994     4.24740956
H       0.98081787     5.09588917     6.39099072
H      -0.21472085     6.25994952     6.85710459
H       0.59414289     8.66373719     4.47829888
H      -0.77764036     7.67222128     3.99668149
H      -0.63002493     8.20132153     5.68412042
C       3.82636005     4.95667984     1.90033353
C       5.17233061     5.58324183     2.20797689
N       5.77754330     6.30686546     1.22334949
O       5.67677022     5.43235063     3.30347443
H       6.69579723     6.75472800     1.38137121
H       5.31800227     6.41358915     0.30347196
H       3.91036808     3.87883902     2.04941750
H       3.09514492     5.34034769     2.61387898
H       3.47082903     5.15745920     0.88825252
18 
# or18: geometry number 16. O4-H17 distance: 2.3 
C      -0.07388124     7.86906337     4.80723359
C       0.74676154     6.61665126     5.04569898
N       0.48793878     5.95440066     6.20927449
O       1.57458106     6.22321994     4.24740956
H       0.98081787     5.09588917     6.39099072
H      -0.21472085     6.25994952     6.85710459
H       0.59414289     8.66373719     4.47829888
H      -0.77764036     7.67222128     3.99668149
H      -0.63002493     8.20132153     5.68412042
C       3.76300322     4.99346619     1.96839731
C       5.10897378     5.62002818     2.27604067
N       5.71418647     6.34365181     1.29141327
O       5.61341339     5.46913698     3.37153821
H       6.63244040     6.79151435     1.44943499
H       5.25464544     6.45037550     0.37153574
H       3.84701125     3.91562537     2.11748128
H       3.03178809     5.37713404     2.68194276
H       3.40747220     5.19424555     0.95631630
18 
# or18: geometry number 17. O4-H17 distance: 2.2 
C      -0.07388124     7.86906337     4.80723359
C       0.74676154     6.61665126     5.04569898
N       0.48793878     5.95440066     6.20927449
O       1.57458106     6.22321994     4.24740956
H       0.98081787     5.09588917     6.39099072
H      -0.21472085     6.25994952     6.85710459
H       0.59414289     8.66373719     4.47829888
H      -0.77764036     7.67222128     3.99668149
H      -0.63002493     8.20132153     5.68412042
C       3.69964639     5.03025253     2.03646108
C       5.04561695     5.65681452     2.34410444
N       5.65082964     6.38043815     1.35947704
O       5.55005656     5.50592332     3.43960198
H       6.56908357     6.82830069     1.51749876
H       5.19128861     6.48716184     0.43959951
H       3.78365442     3.95241171     2.18554505
H       2.96843126     5.41392038     2.75000653
H       3.34411537     5.23103189     1.02438007
18 
# or18: geometry number 18. O4-H17 distance: 2.1 
C      -0.07388124     7.86906337     4.80723359
C       0.74676154     6.61665126     5.04569898
N       0.48793878     5.95440066     6.20927449
O       1.57458106     6.22321994     4.24740956
H       0.98081787     5.09588917     6.39099072
H      -0.21472085     6.25994952     6.85710459
H       0.59414289     8.66373719     4.47829888
H      -0.77764036     7.67222128     3.99668149
H      -0.63002493     8.20132153     5.68412042
C       3.63628957     5.06703887     2.10452486
C       4.98226013     5.69360086     2.41216822
N       5.58747282     6.41722449     1.42754082
O       5.48669974     5.54270966     3.50766576
H       6.50572675     6.86508703     1.58556254
H       5.12793179     6.52394818     0.50766329
H       3.72029760     3.98919805     2.25360883
H       2.90507444     5.45070672     2.81807031
H       3.28075855     5.26781823     1.09244385
18 
# or18: geometry number 19. O4-H17 distance: 2.0 
C      -0.07388124     7.86906337     4.80723359
C       0.74676154     6.61665126     5.04569898
N       0.48793878     5.95440066     6.20927449
O       1.57458106     6.22321994     4.24740956
H       0.98081787     5.09588917     6.39099072
H      -0.21472085     6.25994952     6.85710459
H       0.59414289     8.66373719     4.47829888
H      -0.77764036     7.67222128     3.99668149
H      -0.63002493     8.20132153     5.68412042
C       3.57293274     5.10382522     2.17258863
C       4.91890330     5.73038721     2.48023199
N       5.52411599     6.45401084     1.49560459
O       5.42334291     5.57949601     3.57572953
H       6.44236992     6.90187338     1.65362631
H       5.06457496     6.56073453     0.57572706
H       3.65694077     4.02598440     2.32167260
H       2.84171761     5.48749307     2.88613408
H       3.21740172     5.30460458     1.16050762
18 
# or18: geometry number 20. O4-H17 distance: 1.9 
C      -0.07388124     7.86906337     4.80723359
C       0.74676154     6.61665126     5.04569898
N       0.48793878     5.95440066     6.20927449
O       1.57458106     6.22321994     4.24740956
H       0.98081787     5.09588917     6.39099072
H      -0.21472085     6.25994952     6.85710459
H       0.59414289     8.66373719     4.47829888
H      -0.77764036     7.67222128     3.99668149
H      -0.63002493     8.20132153     5.68412042
C       3.50957591     5.14061156     2.24065240
C       4.85554647     5.76717355     2.54829576
N       5.46075916     6.49079718     1.56366836
O       5.35998608     5.61628235     3.64379330
H       6.37901309     6.93865972     1.72169008
H       5.00121813     6.59752087     0.64379083
H       3.59358394     4.06277074     2.38973637
H       2.77836078     5.52427941     2.95419785
H       3.15404489     5.34139092     1.22857139
18 
# or18: geometry number 21. O4-H17 distance: 1.8 
C      -0.07388124     7.86906337     4.80723359
C       0.74676154     6.61665126     5.04569898
N       0.48793878     5.95440066     6.20927449
O       1.57458106     6.22321994     4.24740956
H       0.98081787     5.09588917     6.39099072
H      -0.21472085     6.25994952     6.85710459
H       0.59414289     8.66373719     4.47829888
H      -0.77764036     7.67222128     3.99668149
H      -0.63002493     8.20132153     5.68412042
C       3.44621908     5.17739791     2.30871618
C       4.79218964     5.80395990     2.61635954
N       5.39740233     6.52758353     1.63173214
O       5.29662925     5.65306870     3.71185708
H       6.31565626     6.97544607     1.78975386
H       4.93786130     6.63430722     0.71185461
H       3.53022711     4.09955709     2.45780015
H       2.71500395     5.56106576     3.02226163
H       3.09068806     5.37817727     1.29663517
18 
# or18: geometry number 22. O4-H17 distance: 1.75 
C      -0.07388124     7.86906337     4.80723359
C       0.74676154     6.61665126     5.04569898
N       0.48793878     5.95440066     6.20927449
O       1.57458106     6.22321994     4.24740956
H       0.98081787     5.09588917     6.39099072
H      -0.21472085     6.25994952     6.85710459
H       0.59414289     8.66373719     4.47829888
H      -0.77764036     7.67222128     3.99668149
H      -0.63002493     8.20132153     5.68412042
C       3.41454067     5.19579108     2.34274806
C       4.76051123     5.82235307     2.65039142
N       5.36572392     6.54597670     1.66576402
O       5.26495084     5.67146187     3.74588896
H       6.28397785     6.99383924     1.82378574
H       4.90618289     6.65270039     0.74588649
H       3.49854870     4.11795026     2.49183203
H       2.68332554     5.57945893     3.05629351
H       3.05900965     5.39657044     1.33066705
18 
# or18: geometry number 23. O4-H17 distance: 1.7 
C      -0.07388124     7.86906337     4.80723359
C       0.74676154     6.61665126     5.04569898
N       0.48793878     5.95440066     6.20927449
O       1.57458106     6.22321994     4.24740956
H       0.98081787     5.09588917     6.39099072
H      -0.21472085     6.25994952     6.85710459
H       0.59414289     8.66373719     4.47829888
H      -0.77764036     7.67222128     3.99668149
H      -0.63002493     8.20132153     5.68412042
C       3.38286226     5.21418425     2.37677995
C       4.72883282     5.84074624     2.68442331
N       5.33404551     6.56436987     1.69979591
O       5.23327243     5.68985504     3.77992085
H       6.25229944     7.01223241     1.85781763
H       4.87450448     6.67109356     0.77991838
H       3.46687029     4.13634343     2.52586392
H       2.65164713     5.59785210     3.09032540
H       3.02733124     5.41496361     1.36469894
18 
# or18: geometry number 24. O4-H17 distance: 1.65 
C      -0.07388124     7.86906337     4.80723359
C       0.74676154     6.61665126     5.04569898
N       0.48793878     5.95440066     6.20927449
O       1.57458106     6.22321994     4.24740956
H       0.98081787     5.09588917     6.39099072
H      -0.21472085     6.25994952     6.85710459
H       0.59414289     8.66373719     4.47829888
H      -0.77764036     7.67222128     3.99668149
H      -0.63002493     8.20132153     5.68412042
C       3.35118384     5.23257742     2.41081184
C       4.69715440     5.85913941     2.71845520
N       5.30236709     6.58276304     1.73382780
O       5.20159401     5.70824821     3.81395274
H       6.22062102     7.03062558     1.89184952
H       4.84282606     6.68948673     0.81395027
H       3.43519187     4.15473660     2.55989581
H       2.61996871     5.61624527     3.12435729
H       2.99565282     5.43335678     1.39873083
18 
# or18: geometry number 25. O4-H17 distance: 1.6 
C      -0.07388124     7.86906337     4.80723359
C       0.74676154     6.61665126     5.04569898
N       0.48793878     5.95440066     6.20927449
O       1.57458106     6.22321994     4.24740956
H       0.98081787     5.09588917     6.39099072
H      -0.21472085     6.25994952     6.85710459
H       0.59414289     8.66373719     4.47829888
H      -0.77764036     7.67222128     3.99668149
H      -0.63002493     8.20132153     5.68412042
C       3.31950543     5.25097059     2.44484373
C       4.66547599     5.87753258     2.75248709
N       5.27068868     6.60115621     1.76785969
O       5.16991560     5.72664138     3.84798463
H       6.18894261     7.04901875     1.92588141
H       4.81114765     6.70787990     0.84798216
H       3.40351346     4.17312977     2.59392770
H       2.58829030     5.63463844     3.15838918
H       2.96397441     5.45174995     1.43276272
18 
# or18: geometry number 26. O4-H17 distance: 1.55 
C      -0.07388124     7.86906337     4.80723359
C       0.74676154     6.61665126     5.04569898
N       0.48793878     5.95440066     6.20927449
O       1.57458106     6.22321994     4.24740956
H       0.98081787     5.09588917     6.39099072
H      -0.21472085     6.25994952     6.85710459
H       0.59414289     8.66373719     4.47829888
H      -0.77764036     7.67222128     3.99668149
H      -0.63002493     8.20132153     5.68412042
C       3.28782702     5.26936376     2.47887561
C       4.63379758     5.89592575     2.78651897
N       5.23901027     6.61954938     1.80189157
O       5.13823719     5.74503455     3.88201651
H       6.15726420     7.06741192     1.95991329
H       4.77946924     6.72627307     0.88201404
H       3.37183505     4.19152294     2.62795958
H       2.55661189     5.65303161     3.19242106
H       2.93229600     5.47014312     1.46679460
18 
# or18: geometry number 27. O4-H17 distance: 1.5 
C      -0.07388124     7.86906337     4.80723359
C       0.74676154     6.61665126     5.04569898
N       0.48793878     5.95440066     6.20927449
O       1.57458106     6.22321994     4.24740956
H       0.98081787     5.09588917     6.39099072
H      -0.21472085     6.25994952     6.85710459
H       0.59414289     8.66373719     4.47829888
H      -0.77764036     7.67222128     3.99668149
H      -0.63002493     8.20132153     5.68412042
C       3.25614860     5.28775694     2.51290750
C       4.60211916     5.91431893     2.82055086
N       5.20733185     6.63794256     1.83592346
O       5.10655877     5.76342773     3.91604840
H       6.12558578     7.08580510     1.99394518
H       4.74779082     6.74466625     0.91604593
H       3.34015663     4.20991612     2.66199147
H       2.52493347     5.67142479     3.22645295
H       2.90061758     5.48853630     1.50082649
18 
# or18: geometry number 28. O4-H17 distance: 1.45 
C      -0.07388124     7.86906337     4.80723359
C       0.74676154     6.61665126     5.04569898
N       0.48793878     5.95440066     6.20927449
O       1.57458106     6.22321994     4.24740956
H       0.98081787     5.09588917     6.39099072
H      -0.21472085     6.25994952     6.85710459
H       0.59414289     8.66373719     4.47829888
H      -0.77764036     7.67222128     3.99668149
H      -0.63002493     8.20132153     5.68412042
C       3.22447019     5.30615011     2.54693939
C       4.57044075     5.93271210     2.85458275
N       5.17565344     6.65633573     1.86995535
O       5.07488036     5.78182090     3.95008029
H       6.09390737     7.10419827     2.02797707
H       4.71611241     6.76305942     0.95007782
H       3.30847822     4.22830929     2.69602336
H       2.49325506     5.68981796     3.26048484
H       2.86893917     5.50692947     1.53485838
18 
# or18: geometry number 29. O4-H17 distance: 1.4 
C      -0.07388124     7.86906337     4.80723359
C       0.74676154     6.61665126     5.04569898
N       0.48793878     5.95440066     6.20927449
O       1.57458106     6.22321994     4.24740956
H       0.98081787     5.09588917     6.39099072
H      -0.21472085     6.25994952     6.85710459
H       0.59414289     8.66373719     4.47829888
H      -0.77764036     7.67222128     3.99668149
H      -0.63002493     8.20132153     5.68412042
C       3.19279177     5.32454328     2.58097127
C       4.53876233     5.95110527     2.88861463
N       5.14397502     6.67472890     1.90398723
O       5.04320194     5.80021407     3.98411217
H       6.06222895     7.12259144     2.06200895
H       4.68443399     6.78145259     0.98410970
H       3.27679980     4.24670246     2.73005524
H       2.46157664     5.70821113     3.29451672
H       2.83726075     5.52532264     1.56889026
18 
# or18: geometry number 30. O4-H17 distance: 1.35 
C      -0.07388124     7.86906337     4.80723359
C       0.74676154     6.61665126     5.04569898
N       0.48793878     5.95440066     6.20927449
O       1.57458106     6.22321994     4.24740956
H       0.98081787     5.09588917     6.39099072
H      -0.21472085     6.25994952     6.85710459
H       0.59414289     8.66373719     4.47829888
H      -0.77764036     7.67222128     3.99668149
H      -0.63002493     8.20132153     5.68412042
C       3.16111336     5.34293645     2.61500316
C       4.50708392     5.96949844     2.92264652
N       5.11229661     6.69312207     1.93801912
O       5.01152353     5.81860724     4.01814406
H       6.03055054     7.14098461     2.09604084
H       4.65275558     6.79984576     1.01814159
H       3.24512139     4.26509563     2.76408713
H       2.42989823     5.72660430     3.32854861
H       2.80558234     5.54371581     1.60292215
