18 
# or3: geometry number 1. C1-N12 distance: 10 
C      -1.23336086     2.22342408     0.39448655
C      -0.54040086     0.87645608     0.46036555
N       0.81070814     0.89852508     0.27736155
O      -1.14811686    -0.15467292     0.67201055
H       1.31787014     0.03239608     0.35219355
H       1.31973114     1.75075008     0.13113355
H      -2.11766886     2.12787908    -0.23386945
H      -1.56846786     2.48937108     1.39847555
H      -0.59952286     3.02327108     0.01092955
C      -8.84529319     9.47100292     0.00959313
C      -7.73775779    10.07975890     0.84723424
N      -6.66729897    10.61581893     0.19442321
O      -7.82236093    10.07892488     2.05974566
H      -5.88527433    11.04324152     0.71834055
H      -6.63004629    10.59833157    -0.83855743
H      -8.96064006     8.42664312     0.30460485
H      -9.77713253     9.99127475     0.23766413
H      -8.66333337     9.52765101    -1.06497852
18 
# or3: geometry number 2. C1-N12 distance: 9 
C      -1.23336086     2.22342408     0.39448655
C      -0.54040086     0.87645608     0.46036555
N       0.81070814     0.89852508     0.27736155
O      -1.14811686    -0.15467292     0.67201055
H       1.31787014     0.03239608     0.35219355
H       1.31973114     1.75075008     0.13113355
H      -2.11766886     2.12787908    -0.23386945
H      -1.56846786     2.48937108     1.39847555
H      -0.59952286     3.02327108     0.01092955
C      -8.30189938     8.63176343     0.02959946
C      -7.19436398     9.24051941     0.86724057
N      -6.12390516     9.77657944     0.21442954
O      -7.27896712     9.23968539     2.07975199
H      -5.34188052    10.20400203     0.73834688
H      -6.08665248     9.75909208    -0.81855110
H      -8.41724625     7.58740363     0.32461118
H      -9.23373872     9.15203526     0.25767046
H      -8.11993956     8.68841152    -1.04497219
18 
# or3: geometry number 3. C1-N12 distance: 8 
C      -1.23336086     2.22342408     0.39448655
C      -0.54040086     0.87645608     0.46036555
N       0.81070814     0.89852508     0.27736155
O      -1.14811686    -0.15467292     0.67201055
H       1.31787014     0.03239608     0.35219355
H       1.31973114     1.75075008     0.13113355
H      -2.11766886     2.12787908    -0.23386945
H      -1.56846786     2.48937108     1.39847555
H      -0.59952286     3.02327108     0.01092955
C      -7.75850557     7.79252395     0.04960580
C      -6.65097017     8.40127993     0.88724691
N      -5.58051135     8.93733996     0.23443588
O      -6.73557331     8.40044591     2.09975833
H      -4.79848671     9.36476255     0.75835322
H      -5.54325867     8.91985260    -0.79854476
H      -7.87385244     6.74816415     0.34461752
H      -8.69034491     8.31279578     0.27767680
H      -7.57654575     7.84917204    -1.02496585
18 
# or3: geometry number 4. C1-N12 distance: 7 
C      -1.23336086     2.22342408     0.39448655
C      -0.54040086     0.87645608     0.46036555
N       0.81070814     0.89852508     0.27736155
O      -1.14811686    -0.15467292     0.67201055
H       1.31787014     0.03239608     0.35219355
H       1.31973114     1.75075008     0.13113355
H      -2.11766886     2.12787908    -0.23386945
H      -1.56846786     2.48937108     1.39847555
H      -0.59952286     3.02327108     0.01092955
C      -7.21511175     6.95328446     0.06961213
C      -6.10757635     7.56204044     0.90725324
N      -5.03711753     8.09810047     0.25444221
O      -6.19217949     7.56120642     2.11976466
H      -4.25509289     8.52552306     0.77835955
H      -4.99986485     8.08061311    -0.77853843
H      -7.33045862     5.90892466     0.36462385
H      -8.14695109     7.47355629     0.29768313
H      -7.03315193     7.00993255    -1.00495952
18 
# or3: geometry number 5. C1-N12 distance: 6 
C      -1.23336086     2.22342408     0.39448655
C      -0.54040086     0.87645608     0.46036555
N       0.81070814     0.89852508     0.27736155
O      -1.14811686    -0.15467292     0.67201055
H       1.31787014     0.03239608     0.35219355
H       1.31973114     1.75075008     0.13113355
H      -2.11766886     2.12787908    -0.23386945
H      -1.56846786     2.48937108     1.39847555
H      -0.59952286     3.02327108     0.01092955
C      -6.67171794     6.11404498     0.08961846
C      -5.56418254     6.72280096     0.92725957
N      -4.49372372     7.25886099     0.27444854
O      -5.64878568     6.72196694     2.13977099
H      -3.71169908     7.68628358     0.79836588
H      -4.45647104     7.24137363    -0.75853210
H      -6.78706481     5.06968518     0.38463018
H      -7.60355728     6.63431681     0.31768946
H      -6.48975812     6.17069307    -0.98495319
18 
# or3: geometry number 6. C1-N12 distance: 5 
C      -1.23336086     2.22342408     0.39448655
C      -0.54040086     0.87645608     0.46036555
N       0.81070814     0.89852508     0.27736155
O      -1.14811686    -0.15467292     0.67201055
H       1.31787014     0.03239608     0.35219355
H       1.31973114     1.75075008     0.13113355
H      -2.11766886     2.12787908    -0.23386945
H      -1.56846786     2.48937108     1.39847555
H      -0.59952286     3.02327108     0.01092955
C      -6.12832413     5.27480549     0.10962480
C      -5.02078873     5.88356147     0.94726591
N      -3.95032991     6.41962150     0.29445488
O      -5.10539187     5.88272745     2.15977733
H      -3.16830527     6.84704409     0.81837222
H      -3.91307723     6.40213414    -0.73852576
H      -6.24367100     4.23044569     0.40463652
H      -7.06016347     5.79507732     0.33769580
H      -5.94636431     5.33145358    -0.96494685
18 
# or3: geometry number 7. C1-N12 distance: 4.7 
C      -1.23336086     2.22342408     0.39448655
C      -0.54040086     0.87645608     0.46036555
N       0.81070814     0.89852508     0.27736155
O      -1.14811686    -0.15467292     0.67201055
H       1.31787014     0.03239608     0.35219355
H       1.31973114     1.75075008     0.13113355
H      -2.11766886     2.12787908    -0.23386945
H      -1.56846786     2.48937108     1.39847555
H      -0.59952286     3.02327108     0.01092955
C      -5.96530599     5.02303365     0.11562670
C      -4.85777059     5.63178963     0.95326781
N      -3.78731177     6.16784966     0.30045678
O      -4.94237373     5.63095561     2.16577923
H      -3.00528713     6.59527225     0.82437412
H      -3.75005909     6.15036230    -0.73252386
H      -6.08065286     3.97867385     0.41063842
H      -6.89714533     5.54330548     0.34369770
H      -5.78334617     5.07968174    -0.95894495
18 
# or3: geometry number 8. C1-N12 distance: 4.4 
C      -1.23336086     2.22342408     0.39448655
C      -0.54040086     0.87645608     0.46036555
N       0.81070814     0.89852508     0.27736155
O      -1.14811686    -0.15467292     0.67201055
H       1.31787014     0.03239608     0.35219355
H       1.31973114     1.75075008     0.13113355
H      -2.11766886     2.12787908    -0.23386945
H      -1.56846786     2.48937108     1.39847555
H      -0.59952286     3.02327108     0.01092955
C      -5.80228785     4.77126180     0.12162860
C      -4.69475245     5.38001778     0.95926971
N      -3.62429363     5.91607781     0.30645868
O      -4.77935559     5.37918376     2.17178113
H      -2.84226899     6.34350040     0.83037602
H      -3.58704095     5.89859045    -0.72652196
H      -5.91763472     3.72690200     0.41664032
H      -6.73412719     5.29153363     0.34969960
H      -5.62032803     4.82790989    -0.95294305
18 
# or3: geometry number 9. C1-N12 distance: 4.2 
C      -1.23336086     2.22342408     0.39448655
C      -0.54040086     0.87645608     0.46036555
N       0.81070814     0.89852508     0.27736155
O      -1.14811686    -0.15467292     0.67201055
H       1.31787014     0.03239608     0.35219355
H       1.31973114     1.75075008     0.13113355
H      -2.11766886     2.12787908    -0.23386945
H      -1.56846786     2.48937108     1.39847555
H      -0.59952286     3.02327108     0.01092955
C      -5.69360908     4.60341391     0.12562987
C      -4.58607368     5.21216989     0.96327098
N      -3.51561486     5.74822992     0.31045995
O      -4.67067682     5.21133587     2.17578240
H      -2.73359022     6.17565251     0.83437729
H      -3.47836218     5.73074256    -0.72252069
H      -5.80895595     3.55905411     0.42064159
H      -6.62544842     5.12368574     0.35370087
H      -5.51164926     4.66006200    -0.94894178
18 
# or3: geometry number 10. C1-N12 distance: 4 
C      -1.23336086     2.22342408     0.39448655
C      -0.54040086     0.87645608     0.46036555
N       0.81070814     0.89852508     0.27736155
O      -1.14811686    -0.15467292     0.67201055
H       1.31787014     0.03239608     0.35219355
H       1.31973114     1.75075008     0.13113355
H      -2.11766886     2.12787908    -0.23386945
H      -1.56846786     2.48937108     1.39847555
H      -0.59952286     3.02327108     0.01092955
C      -5.58493032     4.43556601     0.12963113
C      -4.47739492     5.04432199     0.96727224
N      -3.40693610     5.58038202     0.31446121
O      -4.56199806     5.04348797     2.17978366
H      -2.62491146     6.00780461     0.83837855
H      -3.36968342     5.56289466    -0.71851943
H      -5.70027719     3.39120621     0.42464285
H      -6.51676966     4.95583784     0.35770213
H      -5.40297050     4.49221410    -0.94494052
18 
# or3: geometry number 11. C1-N12 distance: 3.8 
C      -1.23336086     2.22342408     0.39448655
C      -0.54040086     0.87645608     0.46036555
N       0.81070814     0.89852508     0.27736155
O      -1.14811686    -0.15467292     0.67201055
H       1.31787014     0.03239608     0.35219355
H       1.31973114     1.75075008     0.13113355
H      -2.11766886     2.12787908    -0.23386945
H      -1.56846786     2.48937108     1.39847555
H      -0.59952286     3.02327108     0.01092955
C      -5.47625156     4.26771811     0.13363240
C      -4.36871616     4.87647409     0.97127351
N      -3.29825734     5.41253412     0.31846248
O      -4.45331930     4.87564007     2.18378493
H      -2.51623270     5.83995671     0.84237982
H      -3.26100466     5.39504676    -0.71451816
H      -5.59159843     3.22335831     0.42864412
H      -6.40809090     4.78798994     0.36170340
H      -5.29429174     4.32436620    -0.94093925
18 
# or3: geometry number 12. C1-N12 distance: 3.7 
C      -1.23336086     2.22342408     0.39448655
C      -0.54040086     0.87645608     0.46036555
N       0.81070814     0.89852508     0.27736155
O      -1.14811686    -0.15467292     0.67201055
H       1.31787014     0.03239608     0.35219355
H       1.31973114     1.75075008     0.13113355
H      -2.11766886     2.12787908    -0.23386945
H      -1.56846786     2.48937108     1.39847555
H      -0.59952286     3.02327108     0.01092955
C      -5.42191218     4.18379416     0.13563303
C      -4.31437678     4.79255014     0.97327414
N      -3.24391796     5.32861017     0.32046311
O      -4.39897992     4.79171612     2.18578556
H      -2.46189332     5.75603276     0.84438045
H      -3.20666528     5.31112281    -0.71251753
H      -5.53725905     3.13943436     0.43064475
H      -6.35375152     4.70406599     0.36370403
H      -5.23995236     4.24044225    -0.93893862
18 
# or3: geometry number 13. C1-N12 distance: 3.6 
C      -1.23336086     2.22342408     0.39448655
C      -0.54040086     0.87645608     0.46036555
N       0.81070814     0.89852508     0.27736155
O      -1.14811686    -0.15467292     0.67201055
H       1.31787014     0.03239608     0.35219355
H       1.31973114     1.75075008     0.13113355
H      -2.11766886     2.12787908    -0.23386945
H      -1.56846786     2.48937108     1.39847555
H      -0.59952286     3.02327108     0.01092955
C      -5.36757280     4.09987022     0.13763367
C      -4.26003740     4.70862620     0.97527478
N      -3.18957858     5.24468623     0.32246375
O      -4.34464054     4.70779218     2.18778620
H      -2.40755394     5.67210882     0.84638109
H      -3.15232590     5.22719887    -0.71051689
H      -5.48291967     3.05551042     0.43264539
H      -6.29941214     4.62014205     0.36570467
H      -5.18561298     4.15651831    -0.93693798
18 
# or3: geometry number 14. C1-N12 distance: 3.5 
C      -1.23336086     2.22342408     0.39448655
C      -0.54040086     0.87645608     0.46036555
N       0.81070814     0.89852508     0.27736155
O      -1.14811686    -0.15467292     0.67201055
H       1.31787014     0.03239608     0.35219355
H       1.31973114     1.75075008     0.13113355
H      -2.11766886     2.12787908    -0.23386945
H      -1.56846786     2.48937108     1.39847555
H      -0.59952286     3.02327108     0.01092955
C      -5.31323342     4.01594627     0.13963430
C      -4.20569802     4.62470225     0.97727541
N      -3.13523920     5.16076228     0.32446438
O      -4.29030116     4.62386823     2.18978683
H      -2.35321456     5.58818487     0.84838172
H      -3.09798652     5.14327492    -0.70851626
H      -5.42858029     2.97158647     0.43464602
H      -6.24507276     4.53621810     0.36770530
H      -5.13127360     4.07259436    -0.93493735
18 
# or3: geometry number 15. C1-N12 distance: 3.4 
C      -1.23336086     2.22342408     0.39448655
C      -0.54040086     0.87645608     0.46036555
N       0.81070814     0.89852508     0.27736155
O      -1.14811686    -0.15467292     0.67201055
H       1.31787014     0.03239608     0.35219355
H       1.31973114     1.75075008     0.13113355
H      -2.11766886     2.12787908    -0.23386945
H      -1.56846786     2.48937108     1.39847555
H      -0.59952286     3.02327108     0.01092955
C      -5.25889404     3.93202232     0.14163493
C      -4.15135864     4.54077830     0.97927604
N      -3.08089982     5.07683833     0.32646501
O      -4.23596178     4.53994428     2.19178746
H      -2.29887518     5.50426092     0.85038235
H      -3.04364714     5.05935097    -0.70651563
H      -5.37424091     2.88766252     0.43664665
H      -6.19073338     4.45229415     0.36970593
H      -5.07693422     3.98867041    -0.93293672
18 
# or3: geometry number 16. C1-N12 distance: 3.3 
C      -1.23336086     2.22342408     0.39448655
C      -0.54040086     0.87645608     0.46036555
N       0.81070814     0.89852508     0.27736155
O      -1.14811686    -0.15467292     0.67201055
H       1.31787014     0.03239608     0.35219355
H       1.31973114     1.75075008     0.13113355
H      -2.11766886     2.12787908    -0.23386945
H      -1.56846786     2.48937108     1.39847555
H      -0.59952286     3.02327108     0.01092955
C      -5.20455466     3.84809837     0.14363557
C      -4.09701926     4.45685435     0.98127668
N      -3.02656044     4.99291438     0.32846565
O      -4.18162240     4.45602033     2.19378810
H      -2.24453580     5.42033697     0.85238299
H      -2.98930776     4.97542702    -0.70451499
H      -5.31990153     2.80373857     0.43864729
H      -6.13639400     4.36837020     0.37170657
H      -5.02259484     3.90474646    -0.93093608
18 
# or3: geometry number 17. C1-N12 distance: 3.2 
C      -1.23336086     2.22342408     0.39448655
C      -0.54040086     0.87645608     0.46036555
N       0.81070814     0.89852508     0.27736155
O      -1.14811686    -0.15467292     0.67201055
H       1.31787014     0.03239608     0.35219355
H       1.31973114     1.75075008     0.13113355
H      -2.11766886     2.12787908    -0.23386945
H      -1.56846786     2.48937108     1.39847555
H      -0.59952286     3.02327108     0.01092955
C      -5.15021527     3.76417442     0.14563620
C      -4.04267987     4.37293040     0.98327731
N      -2.97222105     4.90899043     0.33046628
O      -4.12728301     4.37209638     2.19578873
H      -2.19019641     5.33641302     0.85438362
H      -2.93496837     4.89150307    -0.70251436
H      -5.26556214     2.71981462     0.44064792
H      -6.08205461     4.28444625     0.37370720
H      -4.96825545     3.82082251    -0.92893545
18 
# or3: geometry number 18. C1-N12 distance: 3.1 
C      -1.23336086     2.22342408     0.39448655
C      -0.54040086     0.87645608     0.46036555
N       0.81070814     0.89852508     0.27736155
O      -1.14811686    -0.15467292     0.67201055
H       1.31787014     0.03239608     0.35219355
H       1.31973114     1.75075008     0.13113355
H      -2.11766886     2.12787908    -0.23386945
H      -1.56846786     2.48937108     1.39847555
H      -0.59952286     3.02327108     0.01092955
C      -5.09587589     3.68025047     0.14763683
C      -3.98834049     4.28900645     0.98527794
N      -2.91788167     4.82506648     0.33246691
O      -4.07294363     4.28817243     2.19778936
H      -2.13585703     5.25248907     0.85638425
H      -2.88062899     4.80757912    -0.70051373
H      -5.21122276     2.63589067     0.44264855
H      -6.02771523     4.20052230     0.37570783
H      -4.91391607     3.73689856    -0.92693482
18 
# or3: geometry number 19. C1-N12 distance: 3 
C      -1.23336086     2.22342408     0.39448655
C      -0.54040086     0.87645608     0.46036555
N       0.81070814     0.89852508     0.27736155
O      -1.14811686    -0.15467292     0.67201055
H       1.31787014     0.03239608     0.35219355
H       1.31973114     1.75075008     0.13113355
H      -2.11766886     2.12787908    -0.23386945
H      -1.56846786     2.48937108     1.39847555
H      -0.59952286     3.02327108     0.01092955
C      -5.04153651     3.59632652     0.14963747
C      -3.93400111     4.20508250     0.98727858
N      -2.86354229     4.74114253     0.33446755
O      -4.01860425     4.20424848     2.19979000
H      -2.08151765     5.16856512     0.85838489
H      -2.82628961     4.72365517    -0.69851309
H      -5.15688338     2.55196672     0.44464919
H      -5.97337585     4.11659835     0.37770847
H      -4.85957669     3.65297461    -0.92493418
18 
# or3: geometry number 20. C1-N12 distance: 2.95 
C      -1.23336086     2.22342408     0.39448655
C      -0.54040086     0.87645608     0.46036555
N       0.81070814     0.89852508     0.27736155
O      -1.14811686    -0.15467292     0.67201055
H       1.31787014     0.03239608     0.35219355
H       1.31973114     1.75075008     0.13113355
H      -2.11766886     2.12787908    -0.23386945
H      -1.56846786     2.48937108     1.39847555
H      -0.59952286     3.02327108     0.01092955
C      -5.01436682     3.55436455     0.15063778
C      -3.90683142     4.16312053     0.98827889
N      -2.83637260     4.69918056     0.33546786
O      -3.99143456     4.16228651     2.20079031
H      -2.05434796     5.12660315     0.85938520
H      -2.79911992     4.68169320    -0.69751278
H      -5.12971369     2.51000475     0.44564950
H      -5.94620616     4.07463638     0.37870878
H      -4.83240700     3.61101264    -0.92393387
18 
# or3: geometry number 21. C1-N12 distance: 2.9 
C      -1.23336086     2.22342408     0.39448655
C      -0.54040086     0.87645608     0.46036555
N       0.81070814     0.89852508     0.27736155
O      -1.14811686    -0.15467292     0.67201055
H       1.31787014     0.03239608     0.35219355
H       1.31973114     1.75075008     0.13113355
H      -2.11766886     2.12787908    -0.23386945
H      -1.56846786     2.48937108     1.39847555
H      -0.59952286     3.02327108     0.01092955
C      -4.98719713     3.51240258     0.15163810
C      -3.87966173     4.12115856     0.98927921
N      -2.80920291     4.65721859     0.33646818
O      -3.96426487     4.12032454     2.20179063
H      -2.02717827     5.08464118     0.86038552
H      -2.77195023     4.63973123    -0.69651246
H      -5.10254400     2.46804278     0.44664982
H      -5.91903647     4.03267441     0.37970910
H      -4.80523731     3.56905067    -0.92293355
18 
# or3: geometry number 22. C1-N12 distance: 2.85 
C      -1.23336086     2.22342408     0.39448655
C      -0.54040086     0.87645608     0.46036555
N       0.81070814     0.89852508     0.27736155
O      -1.14811686    -0.15467292     0.67201055
H       1.31787014     0.03239608     0.35219355
H       1.31973114     1.75075008     0.13113355
H      -2.11766886     2.12787908    -0.23386945
H      -1.56846786     2.48937108     1.39847555
H      -0.59952286     3.02327108     0.01092955
C      -4.96002744     3.47044060     0.15263842
C      -3.85249204     4.07919658     0.99027953
N      -2.78203322     4.61525661     0.33746850
O      -3.93709518     4.07836256     2.20279095
H      -2.00000858     5.04267920     0.86138584
H      -2.74478054     4.59776925    -0.69551214
H      -5.07537431     2.42608080     0.44765014
H      -5.89186678     3.99071243     0.38070942
H      -4.77806762     3.52708869    -0.92193323
18 
# or3: geometry number 23. C1-N12 distance: 2.8 
C      -1.23336086     2.22342408     0.39448655
C      -0.54040086     0.87645608     0.46036555
N       0.81070814     0.89852508     0.27736155
O      -1.14811686    -0.15467292     0.67201055
H       1.31787014     0.03239608     0.35219355
H       1.31973114     1.75075008     0.13113355
H      -2.11766886     2.12787908    -0.23386945
H      -1.56846786     2.48937108     1.39847555
H      -0.59952286     3.02327108     0.01092955
C      -4.93285775     3.42847863     0.15363873
C      -3.82532235     4.03723461     0.99127984
N      -2.75486353     4.57329464     0.33846881
O      -3.90992549     4.03640059     2.20379126
H      -1.97283889     5.00071723     0.86238615
H      -2.71761085     4.55580728    -0.69451183
H      -5.04820462     2.38411883     0.44865045
H      -5.86469709     3.94875046     0.38170973
H      -4.75089793     3.48512672    -0.92093292
18 
# or3: geometry number 24. C1-N12 distance: 2.75 
C      -1.23336086     2.22342408     0.39448655
C      -0.54040086     0.87645608     0.46036555
N       0.81070814     0.89852508     0.27736155
O      -1.14811686    -0.15467292     0.67201055
H       1.31787014     0.03239608     0.35219355
H       1.31973114     1.75075008     0.13113355
H      -2.11766886     2.12787908    -0.23386945
H      -1.56846786     2.48937108     1.39847555
H      -0.59952286     3.02327108     0.01092955
C      -4.90568806     3.38651665     0.15463905
C      -3.79815266     3.99527263     0.99228016
N      -2.72769384     4.53133266     0.33946913
O      -3.88275580     3.99443861     2.20479158
H      -1.94566920     4.95875525     0.86338647
H      -2.69044116     4.51384530    -0.69351151
H      -5.02103493     2.34215685     0.44965077
H      -5.83752740     3.90678848     0.38271005
H      -4.72372824     3.44316474    -0.91993260
18 
# or3: geometry number 25. C1-N12 distance: 2.7 
C      -1.23336086     2.22342408     0.39448655
C      -0.54040086     0.87645608     0.46036555
N       0.81070814     0.89852508     0.27736155
O      -1.14811686    -0.15467292     0.67201055
H       1.31787014     0.03239608     0.35219355
H       1.31973114     1.75075008     0.13113355
H      -2.11766886     2.12787908    -0.23386945
H      -1.56846786     2.48937108     1.39847555
H      -0.59952286     3.02327108     0.01092955
C      -4.87851837     3.34455468     0.15563937
C      -3.77098297     3.95331066     0.99328048
N      -2.70052415     4.48937069     0.34046945
O      -3.85558611     3.95247664     2.20579190
H      -1.91849951     4.91679328     0.86438679
H      -2.66327147     4.47188333    -0.69251119
H      -4.99386524     2.30019488     0.45065109
H      -5.81035771     3.86482651     0.38371037
H      -4.69655855     3.40120277    -0.91893228
18 
# or3: geometry number 26. C1-N12 distance: 2.65 
C      -1.23336086     2.22342408     0.39448655
C      -0.54040086     0.87645608     0.46036555
N       0.81070814     0.89852508     0.27736155
O      -1.14811686    -0.15467292     0.67201055
H       1.31787014     0.03239608     0.35219355
H       1.31973114     1.75075008     0.13113355
H      -2.11766886     2.12787908    -0.23386945
H      -1.56846786     2.48937108     1.39847555
H      -0.59952286     3.02327108     0.01092955
C      -4.85134868     3.30259271     0.15663968
C      -3.74381328     3.91134869     0.99428079
N      -2.67335446     4.44740872     0.34146976
O      -3.82841642     3.91051467     2.20679221
H      -1.89132982     4.87483131     0.86538710
H      -2.63610178     4.42992136    -0.69151088
H      -4.96669555     2.25823291     0.45165140
H      -5.78318802     3.82286454     0.38471068
H      -4.66938886     3.35924080    -0.91793197
18 
# or3: geometry number 27. C1-N12 distance: 2.6 
C      -1.23336086     2.22342408     0.39448655
C      -0.54040086     0.87645608     0.46036555
N       0.81070814     0.89852508     0.27736155
O      -1.14811686    -0.15467292     0.67201055
H       1.31787014     0.03239608     0.35219355
H       1.31973114     1.75075008     0.13113355
H      -2.11766886     2.12787908    -0.23386945
H      -1.56846786     2.48937108     1.39847555
H      -0.59952286     3.02327108     0.01092955
C      -4.82417899     3.26063073     0.15764000
C      -3.71664359     3.86938671     0.99528111
N      -2.64618477     4.40544674     0.34247008
O      -3.80124673     3.86855269     2.20779253
H      -1.86416013     4.83286933     0.86638742
H      -2.60893209     4.38795938    -0.69051056
H      -4.93952586     2.21627093     0.45265172
H      -5.75601833     3.78090256     0.38571100
H      -4.64221917     3.31727882    -0.91693165
18 
# or3: geometry number 28. C1-N12 distance: 2.55 
C      -1.23336086     2.22342408     0.39448655
C      -0.54040086     0.87645608     0.46036555
N       0.81070814     0.89852508     0.27736155
O      -1.14811686    -0.15467292     0.67201055
H       1.31787014     0.03239608     0.35219355
H       1.31973114     1.75075008     0.13113355
H      -2.11766886     2.12787908    -0.23386945
H      -1.56846786     2.48937108     1.39847555
H      -0.59952286     3.02327108     0.01092955
C      -4.79700930     3.21866876     0.15864032
C      -3.68947390     3.82742474     0.99628143
N      -2.61901508     4.36348477     0.34347040
O      -3.77407704     3.82659072     2.20879285
H      -1.83699044     4.79090736     0.86738774
H      -2.58176240     4.34599741    -0.68951024
H      -4.91235617     2.17430896     0.45365204
H      -5.72884864     3.73894059     0.38671132
H      -4.61504948     3.27531685    -0.91593133
18 
# or3: geometry number 29. C1-N12 distance: 2.5 
C      -1.23336086     2.22342408     0.39448655
C      -0.54040086     0.87645608     0.46036555
N       0.81070814     0.89852508     0.27736155
O      -1.14811686    -0.15467292     0.67201055
H       1.31787014     0.03239608     0.35219355
H       1.31973114     1.75075008     0.13113355
H      -2.11766886     2.12787908    -0.23386945
H      -1.56846786     2.48937108     1.39847555
H      -0.59952286     3.02327108     0.01092955
C      -4.76983961     3.17670678     0.15964063
C      -3.66230421     3.78546276     0.99728174
N      -2.59184539     4.32152279     0.34447071
O      -3.74690735     3.78462874     2.20979316
H      -1.80982075     4.74894538     0.86838805
H      -2.55459271     4.30403543    -0.68850993
H      -4.88518648     2.13234698     0.45465235
H      -5.70167895     3.69697861     0.38771163
H      -4.58787979     3.23335487    -0.91493102
18 
# or3: geometry number 30. C1-N12 distance: 2.45 
C      -1.23336086     2.22342408     0.39448655
C      -0.54040086     0.87645608     0.46036555
N       0.81070814     0.89852508     0.27736155
O      -1.14811686    -0.15467292     0.67201055
H       1.31787014     0.03239608     0.35219355
H       1.31973114     1.75075008     0.13113355
H      -2.11766886     2.12787908    -0.23386945
H      -1.56846786     2.48937108     1.39847555
H      -0.59952286     3.02327108     0.01092955
C      -4.74266992     3.13474481     0.16064095
C      -3.63513452     3.74350079     0.99828206
N      -2.56467570     4.27956082     0.34547103
O      -3.71973766     3.74266677     2.21079348
H      -1.78265106     4.70698341     0.86938837
H      -2.52742302     4.26207346    -0.68750961
H      -4.85801679     2.09038501     0.45565267
H      -5.67450926     3.65501664     0.38871195
H      -4.56071010     3.19139290    -0.91393070
18 
# or3: geometry number 31. C1-N12 distance: 2.4 
C      -1.23336086     2.22342408     0.39448655
C      -0.54040086     0.87645608     0.46036555
N       0.81070814     0.89852508     0.27736155
O      -1.14811686    -0.15467292     0.67201055
H       1.31787014     0.03239608     0.35219355
H       1.31973114     1.75075008     0.13113355
H      -2.11766886     2.12787908    -0.23386945
H      -1.56846786     2.48937108     1.39847555
H      -0.59952286     3.02327108     0.01092955
C      -4.71550023     3.09278283     0.16164127
C      -3.60796483     3.70153881     0.99928238
N      -2.53750601     4.23759884     0.34647135
O      -3.69256797     3.70070479     2.21179380
H      -1.75548137     4.66502143     0.87038869
H      -2.50025333     4.22011148    -0.68650929
H      -4.83084710     2.04842303     0.45665299
H      -5.64733957     3.61305466     0.38971227
H      -4.53354041     3.14943092    -0.91293038
