18 
# or9: geometry number 1. C2-O13 distance: 10 
C      -0.76107047     7.60033340     3.08441468
C       0.36477090     7.77346913     4.08509527
N       0.71416359     6.65323401     4.77969664
O       0.92579961     8.83892366     4.25060290
H       1.48321629     6.71164493     5.42633307
H       0.27301789     5.76534484     4.62536650
H      -1.46368098     8.42323987     3.20739498
H      -0.34341854     7.66985869     2.07855608
H      -1.29081523     6.65240229     3.18146565
C       8.67697614     5.16623891    -4.26784777
C       7.23366884     4.70318703    -4.23167956
N       6.79146130     3.91744968    -5.25465267
O       6.51226341     5.03375087    -3.31100368
H       5.81635103     3.57487385    -5.27797154
H       7.43427347     3.65648031    -6.02109253
H       8.68503856     6.25745211    -4.25325474
H       9.17630271     4.81269081    -3.36413298
H       9.22961154     4.80984098    -5.13882265
18 
# or9: geometry number 2. C2-O13 distance: 9 
C      -0.76107047     7.60033340     3.08441468
C       0.36477090     7.77346913     4.08509527
N       0.71416359     6.65323401     4.77969664
O       0.92579961     8.83892366     4.25060290
H       1.48321629     6.71164493     5.42633307
H       0.27301789     5.76534484     4.62536650
H      -1.46368098     8.42323987     3.20739498
H      -0.34341854     7.66985869     2.07855608
H      -1.29081523     6.65240229     3.18146565
C       8.06222689     5.44021073    -3.52823788
C       6.61891959     4.97715885    -3.49206967
N       6.17671205     4.19142150    -4.51504278
O       5.89751416     5.30772269    -2.57139379
H       5.20160178     3.84884567    -4.53836165
H       6.81952422     3.93045213    -5.28148264
H       8.07028931     6.53142393    -3.51364485
H       8.56155346     5.08666263    -2.62452309
H       8.61486229     5.08381280    -4.39921276
18 
# or9: geometry number 3. C2-O13 distance: 8 
C      -0.76107047     7.60033340     3.08441468
C       0.36477090     7.77346913     4.08509527
N       0.71416359     6.65323401     4.77969664
O       0.92579961     8.83892366     4.25060290
H       1.48321629     6.71164493     5.42633307
H       0.27301789     5.76534484     4.62536650
H      -1.46368098     8.42323987     3.20739498
H      -0.34341854     7.66985869     2.07855608
H      -1.29081523     6.65240229     3.18146565
C       7.44747764     5.71418256    -2.78862798
C       6.00417034     5.25113068    -2.75245977
N       5.56196280     4.46539333    -3.77543288
O       5.28276491     5.58169452    -1.83178389
H       4.58685253     4.12281750    -3.79875175
H       6.20477497     4.20442396    -4.54187274
H       7.45554006     6.80539576    -2.77403495
H       7.94680421     5.36063446    -1.88491319
H       8.00011304     5.35778463    -3.65960286
18 
# or9: geometry number 4. C2-O13 distance: 7 
C      -0.76107047     7.60033340     3.08441468
C       0.36477090     7.77346913     4.08509527
N       0.71416359     6.65323401     4.77969664
O       0.92579961     8.83892366     4.25060290
H       1.48321629     6.71164493     5.42633307
H       0.27301789     5.76534484     4.62536650
H      -1.46368098     8.42323987     3.20739498
H      -0.34341854     7.66985869     2.07855608
H      -1.29081523     6.65240229     3.18146565
C       6.83272839     5.98815439    -2.04901809
C       5.38942109     5.52510251    -2.01284988
N       4.94721355     4.73936516    -3.03582299
O       4.66801566     5.85566635    -1.09217400
H       3.97210328     4.39678933    -3.05914186
H       5.59002572     4.47839579    -3.80226285
H       6.84079081     7.07936759    -2.03442506
H       7.33205496     5.63460629    -1.14530330
H       7.38536379     5.63175646    -2.91999297
18 
# or9: geometry number 5. C2-O13 distance: 6 
C      -0.76107047     7.60033340     3.08441468
C       0.36477090     7.77346913     4.08509527
N       0.71416359     6.65323401     4.77969664
O       0.92579961     8.83892366     4.25060290
H       1.48321629     6.71164493     5.42633307
H       0.27301789     5.76534484     4.62536650
H      -1.46368098     8.42323987     3.20739498
H      -0.34341854     7.66985869     2.07855608
H      -1.29081523     6.65240229     3.18146565
C       6.21797913     6.26212621    -1.30940819
C       4.77467183     5.79907433    -1.27323998
N       4.33246429     5.01333698    -2.29621309
O       4.05326640     6.12963817    -0.35256410
H       3.35735402     4.67076115    -2.31953196
H       4.97527646     4.75236761    -3.06265295
H       6.22604155     7.35333941    -1.29481516
H       6.71730570     5.90857811    -0.40569340
H       6.77061453     5.90572828    -2.18038307
18 
# or9: geometry number 6. C2-O13 distance: 5 
C      -0.76107047     7.60033340     3.08441468
C       0.36477090     7.77346913     4.08509527
N       0.71416359     6.65323401     4.77969664
O       0.92579961     8.83892366     4.25060290
H       1.48321629     6.71164493     5.42633307
H       0.27301789     5.76534484     4.62536650
H      -1.46368098     8.42323987     3.20739498
H      -0.34341854     7.66985869     2.07855608
H      -1.29081523     6.65240229     3.18146565
C       5.60322988     6.53609804    -0.56979830
C       4.15992258     6.07304616    -0.53363009
N       3.71771504     5.28730881    -1.55660320
O       3.43851715     6.40361000     0.38704579
H       2.74260477     4.94473298    -1.57992207
H       4.36052721     5.02633944    -2.32304306
H       5.61129230     7.62731124    -0.55520527
H       6.10255645     6.18254994     0.33391649
H       6.15586528     6.17970011    -1.44077318
18 
# or9: geometry number 7. C2-O13 distance: 4.7 
C      -0.76107047     7.60033340     3.08441468
C       0.36477090     7.77346913     4.08509527
N       0.71416359     6.65323401     4.77969664
O       0.92579961     8.83892366     4.25060290
H       1.48321629     6.71164493     5.42633307
H       0.27301789     5.76534484     4.62536650
H      -1.46368098     8.42323987     3.20739498
H      -0.34341854     7.66985869     2.07855608
H      -1.29081523     6.65240229     3.18146565
C       5.41880511     6.61828959    -0.34791533
C       3.97549781     6.15523771    -0.31174712
N       3.53329027     5.36950036    -1.33472023
O       3.25409238     6.48580155     0.60892876
H       2.55818000     5.02692453    -1.35803910
H       4.17610244     5.10853099    -2.10116009
H       5.42686753     7.70950279    -0.33332230
H       5.91813168     6.26474149     0.55579946
H       5.97144051     6.26189166    -1.21889021
18 
# or9: geometry number 8. C2-O13 distance: 4.4 
C      -0.76107047     7.60033340     3.08441468
C       0.36477090     7.77346913     4.08509527
N       0.71416359     6.65323401     4.77969664
O       0.92579961     8.83892366     4.25060290
H       1.48321629     6.71164493     5.42633307
H       0.27301789     5.76534484     4.62536650
H      -1.46368098     8.42323987     3.20739498
H      -0.34341854     7.66985869     2.07855608
H      -1.29081523     6.65240229     3.18146565
C       5.23438033     6.70048113    -0.12603236
C       3.79107303     6.23742925    -0.08986415
N       3.34886549     5.45169190    -1.11283726
O       3.06966760     6.56799309     0.83081173
H       2.37375522     5.10911607    -1.13615613
H       3.99167766     5.19072253    -1.87927712
H       5.24244275     7.79169433    -0.11143933
H       5.73370690     6.34693303     0.77768243
H       5.78701573     6.34408320    -0.99700724
18 
# or9: geometry number 9. C2-O13 distance: 4.2 
C      -0.76107047     7.60033340     3.08441468
C       0.36477090     7.77346913     4.08509527
N       0.71416359     6.65323401     4.77969664
O       0.92579961     8.83892366     4.25060290
H       1.48321629     6.71164493     5.42633307
H       0.27301789     5.76534484     4.62536650
H      -1.46368098     8.42323987     3.20739498
H      -0.34341854     7.66985869     2.07855608
H      -1.29081523     6.65240229     3.18146565
C       5.11143048     6.75527550     0.02188962
C       3.66812318     6.29222362     0.05805783
N       3.22591564     5.50648627    -0.96491528
O       2.94671775     6.62278746     0.97873371
H       2.25080537     5.16391044    -0.98823415
H       3.86872781     5.24551690    -1.73135514
H       5.11949290     7.84648870     0.03648265
H       5.61075705     6.40172740     0.92560441
H       5.66406588     6.39887757    -0.84908526
18 
# or9: geometry number 10. C2-O13 distance: 4 
C      -0.76107047     7.60033340     3.08441468
C       0.36477090     7.77346913     4.08509527
N       0.71416359     6.65323401     4.77969664
O       0.92579961     8.83892366     4.25060290
H       1.48321629     6.71164493     5.42633307
H       0.27301789     5.76534484     4.62536650
H      -1.46368098     8.42323987     3.20739498
H      -0.34341854     7.66985869     2.07855608
H      -1.29081523     6.65240229     3.18146565
C       4.98848063     6.81006986     0.16981160
C       3.54517333     6.34701798     0.20597981
N       3.10296579     5.56128063    -0.81699330
O       2.82376790     6.67758182     1.12665569
H       2.12785552     5.21870480    -0.84031217
H       3.74577796     5.30031126    -1.58343316
H       4.99654305     7.90128306     0.18440463
H       5.48780720     6.45652176     1.07352639
H       5.54111603     6.45367193    -0.70116328
18 
# or9: geometry number 11. C2-O13 distance: 3.8 
C      -0.76107047     7.60033340     3.08441468
C       0.36477090     7.77346913     4.08509527
N       0.71416359     6.65323401     4.77969664
O       0.92579961     8.83892366     4.25060290
H       1.48321629     6.71164493     5.42633307
H       0.27301789     5.76534484     4.62536650
H      -1.46368098     8.42323987     3.20739498
H      -0.34341854     7.66985869     2.07855608
H      -1.29081523     6.65240229     3.18146565
C       4.86553078     6.86486423     0.31773358
C       3.42222348     6.40181235     0.35390179
N       2.98001594     5.61607500    -0.66907132
O       2.70081805     6.73237619     1.27457767
H       2.00490567     5.27349917    -0.69239019
H       3.62282811     5.35510563    -1.43551118
H       4.87359320     7.95607743     0.33232661
H       5.36485735     6.51131613     1.22144837
H       5.41816618     6.50846630    -0.55324130
18 
# or9: geometry number 12. C2-O13 distance: 3.7 
C      -0.76107047     7.60033340     3.08441468
C       0.36477090     7.77346913     4.08509527
N       0.71416359     6.65323401     4.77969664
O       0.92579961     8.83892366     4.25060290
H       1.48321629     6.71164493     5.42633307
H       0.27301789     5.76534484     4.62536650
H      -1.46368098     8.42323987     3.20739498
H      -0.34341854     7.66985869     2.07855608
H      -1.29081523     6.65240229     3.18146565
C       4.80405586     6.89226141     0.39169457
C       3.36074856     6.42920953     0.42786278
N       2.91854102     5.64347218    -0.59511033
O       2.63934313     6.75977337     1.34853866
H       1.94343075     5.30089635    -0.61842920
H       3.56135319     5.38250281    -1.36155019
H       4.81211828     7.98347461     0.40628760
H       5.30338243     6.53871331     1.29540936
H       5.35669126     6.53586348    -0.47928031
18 
# or9: geometry number 13. C2-O13 distance: 3.6 
C      -0.76107047     7.60033340     3.08441468
C       0.36477090     7.77346913     4.08509527
N       0.71416359     6.65323401     4.77969664
O       0.92579961     8.83892366     4.25060290
H       1.48321629     6.71164493     5.42633307
H       0.27301789     5.76534484     4.62536650
H      -1.46368098     8.42323987     3.20739498
H      -0.34341854     7.66985869     2.07855608
H      -1.29081523     6.65240229     3.18146565
C       4.74258093     6.91965860     0.46565556
C       3.29927363     6.45660672     0.50182377
N       2.85706609     5.67086937    -0.52114934
O       2.57786820     6.78717056     1.42249965
H       1.88195582     5.32829354    -0.54446821
H       3.49987826     5.40990000    -1.28758920
H       4.75064335     8.01087180     0.48024859
H       5.24190750     6.56611050     1.36937035
H       5.29521633     6.56326067    -0.40531932
18 
# or9: geometry number 14. C2-O13 distance: 3.5 
C      -0.76107047     7.60033340     3.08441468
C       0.36477090     7.77346913     4.08509527
N       0.71416359     6.65323401     4.77969664
O       0.92579961     8.83892366     4.25060290
H       1.48321629     6.71164493     5.42633307
H       0.27301789     5.76534484     4.62536650
H      -1.46368098     8.42323987     3.20739498
H      -0.34341854     7.66985869     2.07855608
H      -1.29081523     6.65240229     3.18146565
C       4.68110601     6.94705578     0.53961655
C       3.23779871     6.48400390     0.57578476
N       2.79559117     5.69826655    -0.44718835
O       2.51639328     6.81456774     1.49646064
H       1.82048090     5.35569072    -0.47050722
H       3.43840334     5.43729718    -1.21362821
H       4.68916843     8.03826898     0.55420958
H       5.18043258     6.59350768     1.44333134
H       5.23374141     6.59065785    -0.33135833
18 
# or9: geometry number 15. C2-O13 distance: 3.4 
C      -0.76107047     7.60033340     3.08441468
C       0.36477090     7.77346913     4.08509527
N       0.71416359     6.65323401     4.77969664
O       0.92579961     8.83892366     4.25060290
H       1.48321629     6.71164493     5.42633307
H       0.27301789     5.76534484     4.62536650
H      -1.46368098     8.42323987     3.20739498
H      -0.34341854     7.66985869     2.07855608
H      -1.29081523     6.65240229     3.18146565
C       4.61963108     6.97445296     0.61357754
C       3.17632378     6.51140108     0.64974575
N       2.73411624     5.72566373    -0.37322736
O       2.45491835     6.84196492     1.57042163
H       1.75900597     5.38308790    -0.39654623
H       3.37692841     5.46469436    -1.13966722
H       4.62769350     8.06566616     0.62817057
H       5.11895765     6.62090486     1.51729233
H       5.17226648     6.61805503    -0.25739734
18 
# or9: geometry number 16. C2-O13 distance: 3.3 
C      -0.76107047     7.60033340     3.08441468
C       0.36477090     7.77346913     4.08509527
N       0.71416359     6.65323401     4.77969664
O       0.92579961     8.83892366     4.25060290
H       1.48321629     6.71164493     5.42633307
H       0.27301789     5.76534484     4.62536650
H      -1.46368098     8.42323987     3.20739498
H      -0.34341854     7.66985869     2.07855608
H      -1.29081523     6.65240229     3.18146565
C       4.55815616     7.00185014     0.68753853
C       3.11484886     6.53879826     0.72370674
N       2.67264132     5.75306091    -0.29926637
O       2.39344343     6.86936210     1.64438262
H       1.69753105     5.41048508    -0.32258524
H       3.31545349     5.49209154    -1.06570623
H       4.56621858     8.09306334     0.70213156
H       5.05748273     6.64830204     1.59125332
H       5.11079156     6.64545221    -0.18343635
18 
# or9: geometry number 17. C2-O13 distance: 3.2 
C      -0.76107047     7.60033340     3.08441468
C       0.36477090     7.77346913     4.08509527
N       0.71416359     6.65323401     4.77969664
O       0.92579961     8.83892366     4.25060290
H       1.48321629     6.71164493     5.42633307
H       0.27301789     5.76534484     4.62536650
H      -1.46368098     8.42323987     3.20739498
H      -0.34341854     7.66985869     2.07855608
H      -1.29081523     6.65240229     3.18146565
C       4.49668123     7.02924733     0.76149952
C       3.05337393     6.56619545     0.79766773
N       2.61116639     5.78045810    -0.22530538
O       2.33196850     6.89675929     1.71834361
H       1.63605612     5.43788227    -0.24862425
H       3.25397856     5.51948873    -0.99174524
H       4.50474365     8.12046053     0.77609255
H       4.99600780     6.67569923     1.66521431
H       5.04931663     6.67284940    -0.10947536
18 
# or9: geometry number 18. C2-O13 distance: 3.1 
C      -0.76107047     7.60033340     3.08441468
C       0.36477090     7.77346913     4.08509527
N       0.71416359     6.65323401     4.77969664
O       0.92579961     8.83892366     4.25060290
H       1.48321629     6.71164493     5.42633307
H       0.27301789     5.76534484     4.62536650
H      -1.46368098     8.42323987     3.20739498
H      -0.34341854     7.66985869     2.07855608
H      -1.29081523     6.65240229     3.18146565
C       4.43520631     7.05664451     0.83546050
C       2.99189901     6.59359263     0.87162871
N       2.54969147     5.80785528    -0.15134440
O       2.27049358     6.92415647     1.79230459
H       1.57458120     5.46527945    -0.17466327
H       3.19250364     5.54688591    -0.91778426
H       4.44326873     8.14785771     0.85005353
H       4.93453288     6.70309641     1.73917529
H       4.98784171     6.70024658    -0.03551438
18 
# or9: geometry number 19. C2-O13 distance: 3 
C      -0.76107047     7.60033340     3.08441468
C       0.36477090     7.77346913     4.08509527
N       0.71416359     6.65323401     4.77969664
O       0.92579961     8.83892366     4.25060290
H       1.48321629     6.71164493     5.42633307
H       0.27301789     5.76534484     4.62536650
H      -1.46368098     8.42323987     3.20739498
H      -0.34341854     7.66985869     2.07855608
H      -1.29081523     6.65240229     3.18146565
C       4.37373138     7.08404169     0.90942149
C       2.93042408     6.62098981     0.94558970
N       2.48821654     5.83525246    -0.07738341
O       2.20901865     6.95155365     1.86626558
H       1.51310627     5.49267663    -0.10070228
H       3.13102871     5.57428309    -0.84382327
H       4.38179380     8.17525489     0.92401452
H       4.87305795     6.73049359     1.81313628
H       4.92636678     6.72764376     0.03844661
18 
# or9: geometry number 20. C2-O13 distance: 2.95 
C      -0.76107047     7.60033340     3.08441468
C       0.36477090     7.77346913     4.08509527
N       0.71416359     6.65323401     4.77969664
O       0.92579961     8.83892366     4.25060290
H       1.48321629     6.71164493     5.42633307
H       0.27301789     5.76534484     4.62536650
H      -1.46368098     8.42323987     3.20739498
H      -0.34341854     7.66985869     2.07855608
H      -1.29081523     6.65240229     3.18146565
C       4.34299392     7.09774028     0.94640199
C       2.89968662     6.63468840     0.98257020
N       2.45747908     5.84895105    -0.04040291
O       2.17828119     6.96525224     1.90324608
H       1.48236881     5.50637522    -0.06372178
H       3.10029125     5.58798168    -0.80684277
H       4.35105634     8.18895348     0.96099502
H       4.84232049     6.74419218     1.85011678
H       4.89562932     6.74134235     0.07542711
18 
# or9: geometry number 21. C2-O13 distance: 2.9 
C      -0.76107047     7.60033340     3.08441468
C       0.36477090     7.77346913     4.08509527
N       0.71416359     6.65323401     4.77969664
O       0.92579961     8.83892366     4.25060290
H       1.48321629     6.71164493     5.42633307
H       0.27301789     5.76534484     4.62536650
H      -1.46368098     8.42323987     3.20739498
H      -0.34341854     7.66985869     2.07855608
H      -1.29081523     6.65240229     3.18146565
C       4.31225646     7.11143887     0.98338248
C       2.86894916     6.64838699     1.01955069
N       2.42674162     5.86264964    -0.00342242
O       2.14754373     6.97895083     1.94022657
H       1.45163135     5.52007381    -0.02674129
H       3.06955379     5.60168027    -0.76986228
H       4.32031888     8.20265207     0.99797551
H       4.81158303     6.75789077     1.88709727
H       4.86489186     6.75504094     0.11240760
18 
# or9: geometry number 22. C2-O13 distance: 2.85 
C      -0.76107047     7.60033340     3.08441468
C       0.36477090     7.77346913     4.08509527
N       0.71416359     6.65323401     4.77969664
O       0.92579961     8.83892366     4.25060290
H       1.48321629     6.71164493     5.42633307
H       0.27301789     5.76534484     4.62536650
H      -1.46368098     8.42323987     3.20739498
H      -0.34341854     7.66985869     2.07855608
H      -1.29081523     6.65240229     3.18146565
C       4.28151899     7.12513747     1.02036298
C       2.83821169     6.66208559     1.05653119
N       2.39600415     5.87634824     0.03355808
O       2.11680626     6.99264943     1.97720707
H       1.42089388     5.53377241     0.01023921
H       3.03881632     5.61537887    -0.73288178
H       4.28958141     8.21635067     1.03495601
H       4.78084556     6.77158937     1.92407777
H       4.83415439     6.76873954     0.14938810
18 
# or9: geometry number 23. C2-O13 distance: 2.8 
C      -0.76107047     7.60033340     3.08441468
C       0.36477090     7.77346913     4.08509527
N       0.71416359     6.65323401     4.77969664
O       0.92579961     8.83892366     4.25060290
H       1.48321629     6.71164493     5.42633307
H       0.27301789     5.76534484     4.62536650
H      -1.46368098     8.42323987     3.20739498
H      -0.34341854     7.66985869     2.07855608
H      -1.29081523     6.65240229     3.18146565
C       4.25078153     7.13883606     1.05734347
C       2.80747423     6.67578418     1.09351168
N       2.36526669     5.89004683     0.07053857
O       2.08606880     7.00634802     2.01418756
H       1.39015642     5.54747100     0.04721970
H       3.00807886     5.62907746    -0.69590129
H       4.25884395     8.23004926     1.07193650
H       4.75010810     6.78528796     1.96105826
H       4.80341693     6.78243813     0.18636859
18 
# or9: geometry number 24. C2-O13 distance: 2.75 
C      -0.76107047     7.60033340     3.08441468
C       0.36477090     7.77346913     4.08509527
N       0.71416359     6.65323401     4.77969664
O       0.92579961     8.83892366     4.25060290
H       1.48321629     6.71164493     5.42633307
H       0.27301789     5.76534484     4.62536650
H      -1.46368098     8.42323987     3.20739498
H      -0.34341854     7.66985869     2.07855608
H      -1.29081523     6.65240229     3.18146565
C       4.22004407     7.15253465     1.09432397
C       2.77673677     6.68948277     1.13049218
N       2.33452923     5.90374542     0.10751907
O       2.05533134     7.02004661     2.05116806
H       1.35941896     5.56116959     0.08420020
H       2.97734140     5.64277605    -0.65892079
H       4.22810649     8.24374785     1.10891700
H       4.71937064     6.79898655     1.99803876
H       4.77267947     6.79613672     0.22334909
18 
# or9: geometry number 25. C2-O13 distance: 2.7 
C      -0.76107047     7.60033340     3.08441468
C       0.36477090     7.77346913     4.08509527
N       0.71416359     6.65323401     4.77969664
O       0.92579961     8.83892366     4.25060290
H       1.48321629     6.71164493     5.42633307
H       0.27301789     5.76534484     4.62536650
H      -1.46368098     8.42323987     3.20739498
H      -0.34341854     7.66985869     2.07855608
H      -1.29081523     6.65240229     3.18146565
C       4.18930661     7.16623324     1.13130446
C       2.74599931     6.70318136     1.16747267
N       2.30379177     5.91744401     0.14449956
O       2.02459388     7.03374520     2.08814855
H       1.32868150     5.57486818     0.12118069
H       2.94660394     5.65647464    -0.62194030
H       4.19736903     8.25744644     1.14589749
H       4.68863318     6.81268514     2.03501925
H       4.74194201     6.80983531     0.26032958
18 
# or9: geometry number 26. C2-O13 distance: 2.65 
C      -0.76107047     7.60033340     3.08441468
C       0.36477090     7.77346913     4.08509527
N       0.71416359     6.65323401     4.77969664
O       0.92579961     8.83892366     4.25060290
H       1.48321629     6.71164493     5.42633307
H       0.27301789     5.76534484     4.62536650
H      -1.46368098     8.42323987     3.20739498
H      -0.34341854     7.66985869     2.07855608
H      -1.29081523     6.65240229     3.18146565
C       4.15856914     7.17993183     1.16828496
C       2.71526184     6.71687995     1.20445317
N       2.27305430     5.93114260     0.18148006
O       1.99385641     7.04744379     2.12512905
H       1.29794403     5.58856677     0.15816119
H       2.91586647     5.67017323    -0.58495980
H       4.16663156     8.27114503     1.18287799
H       4.65789571     6.82638373     2.07199975
H       4.71120454     6.82353390     0.29731008
18 
# or9: geometry number 27. C2-O13 distance: 2.6 
C      -0.76107047     7.60033340     3.08441468
C       0.36477090     7.77346913     4.08509527
N       0.71416359     6.65323401     4.77969664
O       0.92579961     8.83892366     4.25060290
H       1.48321629     6.71164493     5.42633307
H       0.27301789     5.76534484     4.62536650
H      -1.46368098     8.42323987     3.20739498
H      -0.34341854     7.66985869     2.07855608
H      -1.29081523     6.65240229     3.18146565
C       4.12783168     7.19363042     1.20526545
C       2.68452438     6.73057854     1.24143366
N       2.24231684     5.94484119     0.21846055
O       1.96311895     7.06114238     2.16210954
H       1.26720657     5.60226536     0.19514168
H       2.88512901     5.68387182    -0.54797931
H       4.13589410     8.28484362     1.21985848
H       4.62715825     6.84008232     2.10898024
H       4.68046708     6.83723249     0.33429057
18 
# or9: geometry number 28. C2-O13 distance: 2.55 
C      -0.76107047     7.60033340     3.08441468
C       0.36477090     7.77346913     4.08509527
N       0.71416359     6.65323401     4.77969664
O       0.92579961     8.83892366     4.25060290
H       1.48321629     6.71164493     5.42633307
H       0.27301789     5.76534484     4.62536650
H      -1.46368098     8.42323987     3.20739498
H      -0.34341854     7.66985869     2.07855608
H      -1.29081523     6.65240229     3.18146565
C       4.09709422     7.20732901     1.24224595
C       2.65378692     6.74427713     1.27841416
N       2.21157938     5.95853978     0.25544105
O       1.93238149     7.07484097     2.19909004
H       1.23646911     5.61596395     0.23212218
H       2.85439155     5.69757041    -0.51099881
H       4.10515664     8.29854221     1.25683898
H       4.59642079     6.85378091     2.14596074
H       4.64972962     6.85093108     0.37127107
18 
# or9: geometry number 29. C2-O13 distance: 2.5 
C      -0.76107047     7.60033340     3.08441468
C       0.36477090     7.77346913     4.08509527
N       0.71416359     6.65323401     4.77969664
O       0.92579961     8.83892366     4.25060290
H       1.48321629     6.71164493     5.42633307
H       0.27301789     5.76534484     4.62536650
H      -1.46368098     8.42323987     3.20739498
H      -0.34341854     7.66985869     2.07855608
H      -1.29081523     6.65240229     3.18146565
C       4.06635676     7.22102760     1.27922644
C       2.62304946     6.75797572     1.31539465
N       2.18084192     5.97223837     0.29242154
O       1.90164403     7.08853956     2.23607053
H       1.20573165     5.62966254     0.26910267
H       2.82365409     5.71126900    -0.47401832
H       4.07441918     8.31224080     1.29381947
H       4.56568333     6.86747950     2.18294123
H       4.61899216     6.86462967     0.40825156
18 
# or9: geometry number 30. C2-O13 distance: 2.45 
C      -0.76107047     7.60033340     3.08441468
C       0.36477090     7.77346913     4.08509527
N       0.71416359     6.65323401     4.77969664
O       0.92579961     8.83892366     4.25060290
H       1.48321629     6.71164493     5.42633307
H       0.27301789     5.76534484     4.62536650
H      -1.46368098     8.42323987     3.20739498
H      -0.34341854     7.66985869     2.07855608
H      -1.29081523     6.65240229     3.18146565
C       4.03561929     7.23472620     1.31620694
C       2.59231199     6.77167432     1.35237515
N       2.15010445     5.98593697     0.32940204
O       1.87090656     7.10223816     2.27305103
H       1.17499418     5.64336114     0.30608317
H       2.79291662     5.72496760    -0.43703782
H       4.04368171     8.32593940     1.33079997
H       4.53494586     6.88117810     2.21992173
H       4.58825469     6.87832827     0.44523206
18 
# or9: geometry number 31. C2-O13 distance: 2.4 
C      -0.76107047     7.60033340     3.08441468
C       0.36477090     7.77346913     4.08509527
N       0.71416359     6.65323401     4.77969664
O       0.92579961     8.83892366     4.25060290
H       1.48321629     6.71164493     5.42633307
H       0.27301789     5.76534484     4.62536650
H      -1.46368098     8.42323987     3.20739498
H      -0.34341854     7.66985869     2.07855608
H      -1.29081523     6.65240229     3.18146565
C       4.00488183     7.24842479     1.35318743
C       2.56157453     6.78537291     1.38935564
N       2.11936699     5.99963556     0.36638253
O       1.84016910     7.11593675     2.31003152
H       1.14425672     5.65705973     0.34306366
H       2.76217916     5.73866619    -0.40005733
H       4.01294425     8.33963799     1.36778046
H       4.50420840     6.89487669     2.25690222
H       4.55751723     6.89202686     0.48221255
