16 
# or14: geometry number 1. O3-H13 distance: 10 
C       0.00000000     0.00000000     0.00000000
C       1.50168242     0.00000000     0.00000000
O       1.99935599     1.26165692     0.00000000
O       2.21003263    -0.97201393     0.00007509
H       2.96637189     1.18264569     0.00005633
H      -0.36991305     0.52964945     0.87921567
H      -0.36994768     0.52996114    -0.87901136
H      -0.36380470    -1.02331507    -0.00015940
C      -3.78843791    12.65871474     1.34202270
C      -3.16096808    11.30852294     1.14628359
O      -3.02061354    11.01098492    -0.16947814
O      -2.81284218    10.55615316     2.01767282
H      -2.61226693    10.13215653    -0.21718817
H      -3.17398749    13.42463291     0.86641315
H      -4.76862048    12.68402539     0.86350147
H      -3.88577025    12.86414505     2.40402666
16 
# or14: geometry number 2. O3-H13 distance: 9 
C       0.00000000     0.00000000     0.00000000
C       1.50168242     0.00000000     0.00000000
O       1.99935599     1.26165692     0.00000000
O       2.21003263    -0.97201393     0.00007509
H       2.96637189     1.18264569     0.00005633
H      -0.36991305     0.52964945     0.87921567
H      -0.36994768     0.52996114    -0.87901136
H      -0.36380470    -1.02331507    -0.00015940
C      -3.32727562    11.77166478     1.36374151
C      -2.69980579    10.42147298     1.16800240
O      -2.55945125    10.12393496    -0.14775933
O      -2.35167989     9.66910320     2.03939163
H      -2.15110464     9.24510657    -0.19546936
H      -2.71282520    12.53758295     0.88813196
H      -4.30745819    11.79697543     0.88522028
H      -3.42460796    11.97709509     2.42574547
16 
# or14: geometry number 3. O3-H13 distance: 8 
C       0.00000000     0.00000000     0.00000000
C       1.50168242     0.00000000     0.00000000
O       1.99935599     1.26165692     0.00000000
O       2.21003263    -0.97201393     0.00007509
H       2.96637189     1.18264569     0.00005633
H      -0.36991305     0.52964945     0.87921567
H      -0.36994768     0.52996114    -0.87901136
H      -0.36380470    -1.02331507    -0.00015940
C      -2.86611333    10.88461482     1.38546033
C      -2.23864350     9.53442302     1.18972122
O      -2.09828896     9.23688500    -0.12604051
O      -1.89051760     8.78205324     2.06111045
H      -1.68994235     8.35805661    -0.17375054
H      -2.25166291    11.65053299     0.90985078
H      -3.84629590    10.90992547     0.90693910
H      -2.96344567    11.09004513     2.44746429
16 
# or14: geometry number 4. O3-H13 distance: 7 
C       0.00000000     0.00000000     0.00000000
C       1.50168242     0.00000000     0.00000000
O       1.99935599     1.26165692     0.00000000
O       2.21003263    -0.97201393     0.00007509
H       2.96637189     1.18264569     0.00005633
H      -0.36991305     0.52964945     0.87921567
H      -0.36994768     0.52996114    -0.87901136
H      -0.36380470    -1.02331507    -0.00015940
C      -2.40495104     9.99756486     1.40717915
C      -1.77748121     8.64737306     1.21144004
O      -1.63712667     8.34983504    -0.10432169
O      -1.42935531     7.89500328     2.08282927
H      -1.22878006     7.47100665    -0.15203172
H      -1.79050062    10.76348303     0.93156960
H      -3.38513361    10.02287551     0.92865792
H      -2.50228338    10.20299517     2.46918311
16 
# or14: geometry number 5. O3-H13 distance: 6 
C       0.00000000     0.00000000     0.00000000
C       1.50168242     0.00000000     0.00000000
O       1.99935599     1.26165692     0.00000000
O       2.21003263    -0.97201393     0.00007509
H       2.96637189     1.18264569     0.00005633
H      -0.36991305     0.52964945     0.87921567
H      -0.36994768     0.52996114    -0.87901136
H      -0.36380470    -1.02331507    -0.00015940
C      -1.94378874     9.11051489     1.42889797
C      -1.31631891     7.76032309     1.23315886
O      -1.17596437     7.46278507    -0.08260287
O      -0.96819301     7.00795331     2.10454809
H      -0.76761776     6.58395668    -0.13031290
H      -1.32933832     9.87643306     0.95328842
H      -2.92397131     9.13582554     0.95037674
H      -2.04112108     9.31594520     2.49090193
16 
# or14: geometry number 6. O3-H13 distance: 5 
C       0.00000000     0.00000000     0.00000000
C       1.50168242     0.00000000     0.00000000
O       1.99935599     1.26165692     0.00000000
O       2.21003263    -0.97201393     0.00007509
H       2.96637189     1.18264569     0.00005633
H      -0.36991305     0.52964945     0.87921567
H      -0.36994768     0.52996114    -0.87901136
H      -0.36380470    -1.02331507    -0.00015940
C      -1.48262645     8.22346493     1.45061678
C      -0.85515662     6.87327313     1.25487767
O      -0.71480208     6.57573511    -0.06088406
O      -0.50703072     6.12090335     2.12626690
H      -0.30645547     5.69690672    -0.10859409
H      -0.86817603     8.98938310     0.97500723
H      -2.46280902     8.24877558     0.97209555
H      -1.57995879     8.42889524     2.51262074
16 
# or14: geometry number 7. O3-H13 distance: 4.5 
C       0.00000000     0.00000000     0.00000000
C       1.50168242     0.00000000     0.00000000
O       1.99935599     1.26165692     0.00000000
O       2.21003263    -0.97201393     0.00007509
H       2.96637189     1.18264569     0.00005633
H      -0.36991305     0.52964945     0.87921567
H      -0.36994768     0.52996114    -0.87901136
H      -0.36380470    -1.02331507    -0.00015940
C      -1.25204531     7.77993995     1.46147619
C      -0.62457548     6.42974815     1.26573708
O      -0.48422094     6.13221013    -0.05002465
O      -0.27644958     5.67737837     2.13712631
H      -0.07587433     5.25338174    -0.09773468
H      -0.63759489     8.54585812     0.98586664
H      -2.23222788     7.80525060     0.98295496
H      -1.34937765     7.98537026     2.52348015
16 
# or14: geometry number 8. O3-H13 distance: 4 
C       0.00000000     0.00000000     0.00000000
C       1.50168242     0.00000000     0.00000000
O       1.99935599     1.26165692     0.00000000
O       2.21003263    -0.97201393     0.00007509
H       2.96637189     1.18264569     0.00005633
H      -0.36991305     0.52964945     0.87921567
H      -0.36994768     0.52996114    -0.87901136
H      -0.36380470    -1.02331507    -0.00015940
C      -1.02146416     7.33641497     1.47233560
C      -0.39399433     5.98622317     1.27659649
O      -0.25363979     5.68868515    -0.03916524
O      -0.04586843     5.23385339     2.14798572
H       0.15470682     4.80985676    -0.08687527
H      -0.40701374     8.10233314     0.99672605
H      -2.00164673     7.36172562     0.99381437
H      -1.11879650     7.54184528     2.53433956
16 
# or14: geometry number 9. O3-H13 distance: 3.7 
C       0.00000000     0.00000000     0.00000000
C       1.50168242     0.00000000     0.00000000
O       1.99935599     1.26165692     0.00000000
O       2.21003263    -0.97201393     0.00007509
H       2.96637189     1.18264569     0.00005633
H      -0.36991305     0.52964945     0.87921567
H      -0.36994768     0.52996114    -0.87901136
H      -0.36380470    -1.02331507    -0.00015940
C      -0.88311547     7.07029999     1.47885125
C      -0.25564564     5.72010819     1.28311214
O      -0.11529110     5.42257017    -0.03264959
O       0.09248026     4.96773841     2.15450137
H       0.29305551     4.54374178    -0.08035962
H      -0.26866505     7.83621816     1.00324170
H      -1.86329804     7.09561064     1.00033002
H      -0.98044781     7.27573030     2.54085521
16 
# or14: geometry number 10. O3-H13 distance: 3.4 
C       0.00000000     0.00000000     0.00000000
C       1.50168242     0.00000000     0.00000000
O       1.99935599     1.26165692     0.00000000
O       2.21003263    -0.97201393     0.00007509
H       2.96637189     1.18264569     0.00005633
H      -0.36991305     0.52964945     0.87921567
H      -0.36994768     0.52996114    -0.87901136
H      -0.36380470    -1.02331507    -0.00015940
C      -0.74476678     6.80418500     1.48536689
C      -0.11729695     5.45399320     1.28962778
O       0.02305759     5.15645518    -0.02613395
O       0.23082895     4.70162342     2.16101701
H       0.43140420     4.27762679    -0.07384398
H      -0.13031636     7.57010317     1.00975734
H      -1.72494935     6.82949565     1.00684566
H      -0.84209912     7.00961531     2.54737085
16 
# or14: geometry number 11. O3-H13 distance: 3.1 
C       0.00000000     0.00000000     0.00000000
C       1.50168242     0.00000000     0.00000000
O       1.99935599     1.26165692     0.00000000
O       2.21003263    -0.97201393     0.00007509
H       2.96637189     1.18264569     0.00005633
H      -0.36991305     0.52964945     0.87921567
H      -0.36994768     0.52996114    -0.87901136
H      -0.36380470    -1.02331507    -0.00015940
C      -0.60641810     6.53807001     1.49188254
C       0.02105173     5.18787821     1.29614343
O       0.16140627     4.89034019    -0.01961830
O       0.36917763     4.43550843     2.16753266
H       0.56975288     4.01151180    -0.06732833
H       0.00803232     7.30398818     1.01627299
H      -1.58660067     6.56338066     1.01336131
H      -0.70375044     6.74350032     2.55388650
16 
# or14: geometry number 12. O3-H13 distance: 2.9 
C       0.00000000     0.00000000     0.00000000
C       1.50168242     0.00000000     0.00000000
O       1.99935599     1.26165692     0.00000000
O       2.21003263    -0.97201393     0.00007509
H       2.96637189     1.18264569     0.00005633
H      -0.36991305     0.52964945     0.87921567
H      -0.36994768     0.52996114    -0.87901136
H      -0.36380470    -1.02331507    -0.00015940
C      -0.51418564     6.36066002     1.49622630
C       0.11328419     5.01046822     1.30048719
O       0.25363873     4.71293020    -0.01527454
O       0.46141009     4.25809844     2.17187642
H       0.66198534     3.83410181    -0.06298457
H       0.10026478     7.12657819     1.02061675
H      -1.49436821     6.38597067     1.01770507
H      -0.61151798     6.56609033     2.55823026
16 
# or14: geometry number 13. O3-H13 distance: 2.7 
C       0.00000000     0.00000000     0.00000000
C       1.50168242     0.00000000     0.00000000
O       1.99935599     1.26165692     0.00000000
O       2.21003263    -0.97201393     0.00007509
H       2.96637189     1.18264569     0.00005633
H      -0.36991305     0.52964945     0.87921567
H      -0.36994768     0.52996114    -0.87901136
H      -0.36380470    -1.02331507    -0.00015940
C      -0.42195318     6.18325002     1.50057006
C       0.20551665     4.83305822     1.30483095
O       0.34587119     4.53552020    -0.01093078
O       0.55364255     4.08068844     2.17622018
H       0.75421780     3.65669181    -0.05864081
H       0.19249724     6.94916819     1.02496051
H      -1.40213575     6.20856067     1.02204883
H      -0.51928552     6.38868033     2.56257402
16 
# or14: geometry number 14. O3-H13 distance: 2.5 
C       0.00000000     0.00000000     0.00000000
C       1.50168242     0.00000000     0.00000000
O       1.99935599     1.26165692     0.00000000
O       2.21003263    -0.97201393     0.00007509
H       2.96637189     1.18264569     0.00005633
H      -0.36991305     0.52964945     0.87921567
H      -0.36994768     0.52996114    -0.87901136
H      -0.36380470    -1.02331507    -0.00015940
C      -0.32972072     6.00584003     1.50491383
C       0.29774911     4.65564823     1.30917472
O       0.43810365     4.35811021    -0.00658701
O       0.64587501     3.90327845     2.18056395
H       0.84645026     3.47928182    -0.05429704
H       0.28472970     6.77175820     1.02930428
H      -1.30990329     6.03115068     1.02639260
H      -0.42705306     6.21127034     2.56691779
16 
# or14: geometry number 15. O3-H13 distance: 2.4 
C       0.00000000     0.00000000     0.00000000
C       1.50168242     0.00000000     0.00000000
O       1.99935599     1.26165692     0.00000000
O       2.21003263    -0.97201393     0.00007509
H       2.96637189     1.18264569     0.00005633
H      -0.36991305     0.52964945     0.87921567
H      -0.36994768     0.52996114    -0.87901136
H      -0.36380470    -1.02331507    -0.00015940
C      -0.28360449     5.91713504     1.50708571
C       0.34386534     4.56694324     1.31134660
O       0.48421988     4.26940522    -0.00441513
O       0.69199124     3.81457346     2.18273583
H       0.89256649     3.39057683    -0.05212516
H       0.33084593     6.68305321     1.03147616
H      -1.26378706     5.94244569     1.02856448
H      -0.38093683     6.12256535     2.56908967
16 
# or14: geometry number 16. O3-H13 distance: 2.3 
C       0.00000000     0.00000000     0.00000000
C       1.50168242     0.00000000     0.00000000
O       1.99935599     1.26165692     0.00000000
O       2.21003263    -0.97201393     0.00007509
H       2.96637189     1.18264569     0.00005633
H      -0.36991305     0.52964945     0.87921567
H      -0.36994768     0.52996114    -0.87901136
H      -0.36380470    -1.02331507    -0.00015940
C      -0.23748826     5.82843004     1.50925759
C       0.38998157     4.47823824     1.31351848
O       0.53033611     4.18070022    -0.00224325
O       0.73810747     3.72586846     2.18490771
H       0.93868272     3.30187183    -0.04995328
H       0.37696216     6.59434821     1.03364804
H      -1.21767083     5.85374069     1.03073636
H      -0.33482060     6.03386035     2.57126155
16 
# or14: geometry number 17. O3-H13 distance: 2.2 
C       0.00000000     0.00000000     0.00000000
C       1.50168242     0.00000000     0.00000000
O       1.99935599     1.26165692     0.00000000
O       2.21003263    -0.97201393     0.00007509
H       2.96637189     1.18264569     0.00005633
H      -0.36991305     0.52964945     0.87921567
H      -0.36994768     0.52996114    -0.87901136
H      -0.36380470    -1.02331507    -0.00015940
C      -0.19137203     5.73972504     1.51142947
C       0.43609780     4.38953324     1.31569036
O       0.57645234     4.09199522    -0.00007137
O       0.78422370     3.63716346     2.18707959
H       0.98479895     3.21316683    -0.04778140
H       0.42307839     6.50564321     1.03581992
H      -1.17155460     5.76503569     1.03290824
H      -0.28870437     5.94515535     2.57343343
16 
# or14: geometry number 18. O3-H13 distance: 2.1 
C       0.00000000     0.00000000     0.00000000
C       1.50168242     0.00000000     0.00000000
O       1.99935599     1.26165692     0.00000000
O       2.21003263    -0.97201393     0.00007509
H       2.96637189     1.18264569     0.00005633
H      -0.36991305     0.52964945     0.87921567
H      -0.36994768     0.52996114    -0.87901136
H      -0.36380470    -1.02331507    -0.00015940
C      -0.14525580     5.65102005     1.51360135
C       0.48221403     4.30082825     1.31786224
O       0.62256857     4.00329023     0.00210051
O       0.83033993     3.54845847     2.18925147
H       1.03091518     3.12446184    -0.04560952
H       0.46919462     6.41693822     1.03799180
H      -1.12543837     5.67633070     1.03508012
H      -0.24258814     5.85645036     2.57560531
16 
# or14: geometry number 19. O3-H13 distance: 2.0 
C       0.00000000     0.00000000     0.00000000
C       1.50168242     0.00000000     0.00000000
O       1.99935599     1.26165692     0.00000000
O       2.21003263    -0.97201393     0.00007509
H       2.96637189     1.18264569     0.00005633
H      -0.36991305     0.52964945     0.87921567
H      -0.36994768     0.52996114    -0.87901136
H      -0.36380470    -1.02331507    -0.00015940
C      -0.09913957     5.56231505     1.51577324
C       0.52833026     4.21212325     1.32003413
O       0.66868480     3.91458523     0.00427240
O       0.87645616     3.45975347     2.19142336
H       1.07703141     3.03575684    -0.04343763
H       0.51531085     6.32823322     1.04016369
H      -1.07932214     5.58762570     1.03725201
H      -0.19647191     5.76774536     2.57777720
16 
# or14: geometry number 20. O3-H13 distance: 1.9 
C       0.00000000     0.00000000     0.00000000
C       1.50168242     0.00000000     0.00000000
O       1.99935599     1.26165692     0.00000000
O       2.21003263    -0.97201393     0.00007509
H       2.96637189     1.18264569     0.00005633
H      -0.36991305     0.52964945     0.87921567
H      -0.36994768     0.52996114    -0.87901136
H      -0.36380470    -1.02331507    -0.00015940
C      -0.05302335     5.47361006     1.51794512
C       0.57444648     4.12341826     1.32220601
O       0.71480102     3.82588024     0.00644428
O       0.92257238     3.37104848     2.19359524
H       1.12314763     2.94705185    -0.04126575
H       0.56142707     6.23952823     1.04233557
H      -1.03320592     5.49892071     1.03942389
H      -0.15035569     5.67904037     2.57994908
16 
# or14: geometry number 21. O3-H13 distance: 1.8 
C       0.00000000     0.00000000     0.00000000
C       1.50168242     0.00000000     0.00000000
O       1.99935599     1.26165692     0.00000000
O       2.21003263    -0.97201393     0.00007509
H       2.96637189     1.18264569     0.00005633
H      -0.36991305     0.52964945     0.87921567
H      -0.36994768     0.52996114    -0.87901136
H      -0.36380470    -1.02331507    -0.00015940
C      -0.00690712     5.38490506     1.52011700
C       0.62056271     4.03471326     1.32437789
O       0.76091725     3.73717524     0.00861616
O       0.96868861     3.28234348     2.19576712
H       1.16926386     2.85834685    -0.03909387
H       0.60754330     6.15082323     1.04450745
H      -0.98708969     5.41021571     1.04159577
H      -0.10423946     5.59033537     2.58212096
16 
# or14: geometry number 22. O3-H13 distance: 1.7 
C       0.00000000     0.00000000     0.00000000
C       1.50168242     0.00000000     0.00000000
O       1.99935599     1.26165692     0.00000000
O       2.21003263    -0.97201393     0.00007509
H       2.96637189     1.18264569     0.00005633
H      -0.36991305     0.52964945     0.87921567
H      -0.36994768     0.52996114    -0.87901136
H      -0.36380470    -1.02331507    -0.00015940
C       0.03920911     5.29620006     1.52228888
C       0.66667894     3.94600826     1.32654977
O       0.80703348     3.64847024     0.01078804
O       1.01480484     3.19363848     2.19793900
H       1.21538009     2.76964185    -0.03692199
H       0.65365953     6.06211823     1.04667933
H      -0.94097346     5.32151071     1.04376765
H      -0.05812323     5.50163037     2.58429284
16 
# or14: geometry number 23. O3-H13 distance: 1.6 
C       0.00000000     0.00000000     0.00000000
C       1.50168242     0.00000000     0.00000000
O       1.99935599     1.26165692     0.00000000
O       2.21003263    -0.97201393     0.00007509
H       2.96637189     1.18264569     0.00005633
H      -0.36991305     0.52964945     0.87921567
H      -0.36994768     0.52996114    -0.87901136
H      -0.36380470    -1.02331507    -0.00015940
C       0.08532534     5.20749507     1.52446076
C       0.71279517     3.85730327     1.32872165
O       0.85314971     3.55976525     0.01295992
O       1.06092107     3.10493349     2.20011088
H       1.26149632     2.68093686    -0.03475011
H       0.69977576     5.97341324     1.04885121
H      -0.89485723     5.23280572     1.04593953
H      -0.01200700     5.41292538     2.58646472
16 
# or14: geometry number 24. O3-H13 distance: 1.5 
C       0.00000000     0.00000000     0.00000000
C       1.50168242     0.00000000     0.00000000
O       1.99935599     1.26165692     0.00000000
O       2.21003263    -0.97201393     0.00007509
H       2.96637189     1.18264569     0.00005633
H      -0.36991305     0.52964945     0.87921567
H      -0.36994768     0.52996114    -0.87901136
H      -0.36380470    -1.02331507    -0.00015940
C       0.13144157     5.11879007     1.52663264
C       0.75891140     3.76859827     1.33089353
O       0.89926594     3.47106025     0.01513180
O       1.10703730     3.01622849     2.20228276
H       1.30761255     2.59223186    -0.03257823
H       0.74589199     5.88470824     1.05102309
H      -0.84874100     5.14410072     1.04811141
H       0.03410923     5.32422038     2.58863660
16 
# or14: geometry number 25. O3-H13 distance: 1.4 
C       0.00000000     0.00000000     0.00000000
C       1.50168242     0.00000000     0.00000000
O       1.99935599     1.26165692     0.00000000
O       2.21003263    -0.97201393     0.00007509
H       2.96637189     1.18264569     0.00005633
H      -0.36991305     0.52964945     0.87921567
H      -0.36994768     0.52996114    -0.87901136
H      -0.36380470    -1.02331507    -0.00015940
C       0.17755780     5.03008508     1.52880453
C       0.80502763     3.67989328     1.33306542
O       0.94538217     3.38235526     0.01730369
O       1.15315353     2.92752350     2.20445465
H       1.35372878     2.50352687    -0.03040634
H       0.79200822     5.79600325     1.05319498
H      -0.80262477     5.05539573     1.05028330
H       0.08022546     5.23551539     2.59080849
16 
# or14: geometry number 26. O3-H13 distance: 1.35 
C       0.00000000     0.00000000     0.00000000
C       1.50168242     0.00000000     0.00000000
O       1.99935599     1.26165692     0.00000000
O       2.21003263    -0.97201393     0.00007509
H       2.96637189     1.18264569     0.00005633
H      -0.36991305     0.52964945     0.87921567
H      -0.36994768     0.52996114    -0.87901136
H      -0.36380470    -1.02331507    -0.00015940
C       0.20061592     4.98573258     1.52989047
C       0.82808575     3.63554078     1.33415136
O       0.96844029     3.33800276     0.01838963
O       1.17621165     2.88317100     2.20554059
H       1.37678690     2.45917437    -0.02932040
H       0.81506634     5.75165075     1.05428092
H      -0.77956665     5.01104323     1.05136924
H       0.10328358     5.19116289     2.59189443
16 
# or14: geometry number 27. O3-H13 distance: 1.3 
C       0.00000000     0.00000000     0.00000000
C       1.50168242     0.00000000     0.00000000
O       1.99935599     1.26165692     0.00000000
O       2.21003263    -0.97201393     0.00007509
H       2.96637189     1.18264569     0.00005633
H      -0.36991305     0.52964945     0.87921567
H      -0.36994768     0.52996114    -0.87901136
H      -0.36380470    -1.02331507    -0.00015940
C       0.22367403     4.94138008     1.53097641
C       0.85114386     3.59118828     1.33523730
O       0.99149840     3.29365026     0.01947557
O       1.19926976     2.83881850     2.20662653
H       1.39984501     2.41482187    -0.02823446
H       0.83812445     5.70729825     1.05536686
H      -0.75650854     4.96669073     1.05245518
H       0.12634169     5.14681039     2.59298037
16 
# or14: geometry number 28. O3-H13 distance: 1.25 
C       0.00000000     0.00000000     0.00000000
C       1.50168242     0.00000000     0.00000000
O       1.99935599     1.26165692     0.00000000
O       2.21003263    -0.97201393     0.00007509
H       2.96637189     1.18264569     0.00005633
H      -0.36991305     0.52964945     0.87921567
H      -0.36994768     0.52996114    -0.87901136
H      -0.36380470    -1.02331507    -0.00015940
C       0.24673214     4.89702758     1.53206235
C       0.87420197     3.54683578     1.33632324
O       1.01455651     3.24929776     0.02056151
O       1.22232787     2.79446600     2.20771247
H       1.42290312     2.37046937    -0.02714852
H       0.86118256     5.66294575     1.05645280
H      -0.73345043     4.92233823     1.05354112
H       0.14939980     5.10245789     2.59406631
16 
# or14: geometry number 29. O3-H13 distance: 1.2 
C       0.00000000     0.00000000     0.00000000
C       1.50168242     0.00000000     0.00000000
O       1.99935599     1.26165692     0.00000000
O       2.21003263    -0.97201393     0.00007509
H       2.96637189     1.18264569     0.00005633
H      -0.36991305     0.52964945     0.87921567
H      -0.36994768     0.52996114    -0.87901136
H      -0.36380470    -1.02331507    -0.00015940
C       0.26979026     4.85267508     1.53314829
C       0.89726009     3.50248328     1.33740918
O       1.03761463     3.20494526     0.02164745
O       1.24538599     2.75011350     2.20879841
H       1.44596124     2.32611687    -0.02606258
H       0.88424068     5.61859325     1.05753874
H      -0.71039231     4.87798573     1.05462706
H       0.17245792     5.05810539     2.59515225
