16 
# or16: geometry number 1. O4-O12 distance: 10 
C       0.00000000     0.00000000     0.00000000
C       1.50168242     0.00000000     0.00000000
O       1.99935599     1.26165692     0.00000000
O       2.21003263    -0.97201393     0.00007509
H       2.96637189     1.18264569     0.00005633
H      -0.36991305     0.52964945     0.87921567
H      -0.36994768     0.52996114    -0.87901136
H      -0.36380470    -1.02331507    -0.00015940
C       8.67682381   -11.12668529    -1.67860627
C       8.18170390   -10.43974892    -0.43843499
O       8.57924477   -11.09032120     0.68324863
O       7.51552241    -9.43906454    -0.40096368
H       8.22528474   -10.59293477     1.43735842
H       9.76654888   -11.17806872    -1.66300377
H       8.30289602   -12.15122136    -1.70835372
H       8.34111063   -10.58087170    -2.55548243
16 
# or16: geometry number 2. O4-O12 distance: 8 
C       0.00000000     0.00000000     0.00000000
C       1.50168242     0.00000000     0.00000000
O       1.99935599     1.26165692     0.00000000
O       2.21003263    -0.97201393     0.00007509
H       2.96637189     1.18264569     0.00005633
H      -0.36991305     0.52964945     0.87921567
H      -0.36994768     0.52996114    -0.87901136
H      -0.36380470    -1.02331507    -0.00015940
C       7.61572586    -9.43327517    -1.59839852
C       7.12060595    -8.74633880    -0.35822724
O       7.51814682    -9.39691108     0.76345638
O       6.45442446    -7.74565442    -0.32075593
H       7.16418679    -8.89952465     1.51756617
H       8.70545093    -9.48465860    -1.58279602
H       7.24179807   -10.45781124    -1.62814597
H       7.28001268    -8.88746158    -2.47527468
16 
# or16: geometry number 3. O4-O12 distance: 6 
C       0.00000000     0.00000000     0.00000000
C       1.50168242     0.00000000     0.00000000
O       1.99935599     1.26165692     0.00000000
O       2.21003263    -0.97201393     0.00007509
H       2.96637189     1.18264569     0.00005633
H      -0.36991305     0.52964945     0.87921567
H      -0.36994768     0.52996114    -0.87901136
H      -0.36380470    -1.02331507    -0.00015940
C       6.55462790    -7.73986505    -1.51819076
C       6.05950799    -7.05292868    -0.27801948
O       6.45704886    -7.70350096     0.84366414
O       5.39332650    -6.05224430    -0.24054817
H       6.10308883    -7.20611453     1.59777393
H       7.64435297    -7.79124848    -1.50258826
H       6.18070011    -8.76440112    -1.54793821
H       6.21891472    -7.19405146    -2.39506692
16 
# or16: geometry number 4. O4-O12 distance: 5 
C       0.00000000     0.00000000     0.00000000
C       1.50168242     0.00000000     0.00000000
O       1.99935599     1.26165692     0.00000000
O       2.21003263    -0.97201393     0.00007509
H       2.96637189     1.18264569     0.00005633
H      -0.36991305     0.52964945     0.87921567
H      -0.36994768     0.52996114    -0.87901136
H      -0.36380470    -1.02331507    -0.00015940
C       6.02407892    -6.89315999    -1.47808689
C       5.52895901    -6.20622362    -0.23791561
O       5.92649988    -6.85679590     0.88376801
O       4.86277752    -5.20553924    -0.20044430
H       5.57253985    -6.35940947     1.63787780
H       7.11380399    -6.94454342    -1.46248439
H       5.65015113    -7.91769606    -1.50783434
H       5.68836574    -6.34734640    -2.35496305
16 
# or16: geometry number 5. O4-O12 distance: 4.7 
C       0.00000000     0.00000000     0.00000000
C       1.50168242     0.00000000     0.00000000
O       1.99935599     1.26165692     0.00000000
O       2.21003263    -0.97201393     0.00007509
H       2.96637189     1.18264569     0.00005633
H      -0.36991305     0.52964945     0.87921567
H      -0.36994768     0.52996114    -0.87901136
H      -0.36380470    -1.02331507    -0.00015940
C       5.86491423    -6.63914847    -1.46605572
C       5.36979432    -5.95221210    -0.22588444
O       5.76733519    -6.60278438     0.89579918
O       4.70361283    -4.95152772    -0.18841313
H       5.41337516    -6.10539795     1.64990897
H       6.95463930    -6.69053190    -1.45045322
H       5.49098644    -7.66368454    -1.49580317
H       5.52920105    -6.09333488    -2.34293188
16 
# or16: geometry number 6. O4-O12 distance: 4.4 
C       0.00000000     0.00000000     0.00000000
C       1.50168242     0.00000000     0.00000000
O       1.99935599     1.26165692     0.00000000
O       2.21003263    -0.97201393     0.00007509
H       2.96637189     1.18264569     0.00005633
H      -0.36991305     0.52964945     0.87921567
H      -0.36994768     0.52996114    -0.87901136
H      -0.36380470    -1.02331507    -0.00015940
C       5.70574953    -6.38513695    -1.45402456
C       5.21062962    -5.69820058    -0.21385328
O       5.60817049    -6.34877286     0.90783034
O       4.54444813    -4.69751620    -0.17638197
H       5.25421046    -5.85138643     1.66194013
H       6.79547460    -6.43652038    -1.43842206
H       5.33182174    -7.40967302    -1.48377201
H       5.37003635    -5.83932336    -2.33090072
16 
# or16: geometry number 7. O4-O12 distance: 4.2 
C       0.00000000     0.00000000     0.00000000
C       1.50168242     0.00000000     0.00000000
O       1.99935599     1.26165692     0.00000000
O       2.21003263    -0.97201393     0.00007509
H       2.96637189     1.18264569     0.00005633
H      -0.36991305     0.52964945     0.87921567
H      -0.36994768     0.52996114    -0.87901136
H      -0.36380470    -1.02331507    -0.00015940
C       5.59963974    -6.21579594    -1.44600378
C       5.10451983    -5.52885957    -0.20583250
O       5.50206070    -6.17943185     0.91585112
O       4.43833834    -4.52817519    -0.16836119
H       5.14810067    -5.68204542     1.66996091
H       6.68936481    -6.26717937    -1.43040128
H       5.22571195    -7.24033201    -1.47575123
H       5.26392656    -5.66998235    -2.32287994
16 
# or16: geometry number 8. O4-O12 distance: 4 
C       0.00000000     0.00000000     0.00000000
C       1.50168242     0.00000000     0.00000000
O       1.99935599     1.26165692     0.00000000
O       2.21003263    -0.97201393     0.00007509
H       2.96637189     1.18264569     0.00005633
H      -0.36991305     0.52964945     0.87921567
H      -0.36994768     0.52996114    -0.87901136
H      -0.36380470    -1.02331507    -0.00015940
C       5.49352994    -6.04645493    -1.43798301
C       4.99841003    -5.35951856    -0.19781173
O       5.39595090    -6.01009084     0.92387189
O       4.33222854    -4.35883418    -0.16034042
H       5.04199087    -5.51270441     1.67798168
H       6.58325501    -6.09783836    -1.42238051
H       5.11960215    -7.07099100    -1.46773046
H       5.15781676    -5.50064134    -2.31485917
16 
# or16: geometry number 9. O4-O12 distance: 3.8 
C       0.00000000     0.00000000     0.00000000
C       1.50168242     0.00000000     0.00000000
O       1.99935599     1.26165692     0.00000000
O       2.21003263    -0.97201393     0.00007509
H       2.96637189     1.18264569     0.00005633
H      -0.36991305     0.52964945     0.87921567
H      -0.36994768     0.52996114    -0.87901136
H      -0.36380470    -1.02331507    -0.00015940
C       5.38742015    -5.87711391    -1.42996223
C       4.89230024    -5.19017754    -0.18979095
O       5.28984111    -5.84074982     0.93189267
O       4.22611875    -4.18949316    -0.15231964
H       4.93588108    -5.34336339     1.68600246
H       6.47714522    -5.92849734    -1.41435973
H       5.01349236    -6.90164998    -1.45970968
H       5.05170697    -5.33130032    -2.30683839
16 
# or16: geometry number 10. O4-O12 distance: 3.7 
C       0.00000000     0.00000000     0.00000000
C       1.50168242     0.00000000     0.00000000
O       1.99935599     1.26165692     0.00000000
O       2.21003263    -0.97201393     0.00007509
H       2.96637189     1.18264569     0.00005633
H      -0.36991305     0.52964945     0.87921567
H      -0.36994768     0.52996114    -0.87901136
H      -0.36380470    -1.02331507    -0.00015940
C       5.33436525    -5.79244341    -1.42595185
C       4.83924534    -5.10550704    -0.18578057
O       5.23678621    -5.75607932     0.93590305
O       4.17306385    -4.10482266    -0.14830926
H       4.88282618    -5.25869289     1.69001284
H       6.42409032    -5.84382684    -1.41034935
H       4.96043746    -6.81697948    -1.45569930
H       4.99865207    -5.24662982    -2.30282801
16 
# or16: geometry number 11. O4-O12 distance: 3.6 
C       0.00000000     0.00000000     0.00000000
C       1.50168242     0.00000000     0.00000000
O       1.99935599     1.26165692     0.00000000
O       2.21003263    -0.97201393     0.00007509
H       2.96637189     1.18264569     0.00005633
H      -0.36991305     0.52964945     0.87921567
H      -0.36994768     0.52996114    -0.87901136
H      -0.36380470    -1.02331507    -0.00015940
C       5.28131035    -5.70777290    -1.42194146
C       4.78619044    -5.02083653    -0.18177018
O       5.18373131    -5.67140881     0.93991344
O       4.12000895    -4.02015215    -0.14429887
H       4.82977128    -5.17402238     1.69402323
H       6.37103542    -5.75915633    -1.40633896
H       4.90738256    -6.73230897    -1.45168891
H       4.94559717    -5.16195931    -2.29881762
16 
# or16: geometry number 12. O4-O12 distance: 3.5 
C       0.00000000     0.00000000     0.00000000
C       1.50168242     0.00000000     0.00000000
O       1.99935599     1.26165692     0.00000000
O       2.21003263    -0.97201393     0.00007509
H       2.96637189     1.18264569     0.00005633
H      -0.36991305     0.52964945     0.87921567
H      -0.36994768     0.52996114    -0.87901136
H      -0.36380470    -1.02331507    -0.00015940
C       5.22825545    -5.62310239    -1.41793107
C       4.73313554    -4.93616602    -0.17775979
O       5.13067641    -5.58673830     0.94392383
O       4.06695405    -3.93548164    -0.14028848
H       4.77671638    -5.08935187     1.69803362
H       6.31798052    -5.67448582    -1.40232857
H       4.85432766    -6.64763846    -1.44767852
H       4.89254227    -5.07728880    -2.29480723
16 
# or16: geometry number 13. O4-O12 distance: 3.4 
C       0.00000000     0.00000000     0.00000000
C       1.50168242     0.00000000     0.00000000
O       1.99935599     1.26165692     0.00000000
O       2.21003263    -0.97201393     0.00007509
H       2.96637189     1.18264569     0.00005633
H      -0.36991305     0.52964945     0.87921567
H      -0.36994768     0.52996114    -0.87901136
H      -0.36380470    -1.02331507    -0.00015940
C       5.17520056    -5.53843189    -1.41392068
C       4.68008065    -4.85149552    -0.17374940
O       5.07762152    -5.50206780     0.94793422
O       4.01389916    -3.85081114    -0.13627809
H       4.72366149    -5.00468137     1.70204401
H       6.26492563    -5.58981532    -1.39831818
H       4.80127277    -6.56296796    -1.44366813
H       4.83948738    -4.99261830    -2.29079684
16 
# or16: geometry number 14. O4-O12 distance: 3.3 
C       0.00000000     0.00000000     0.00000000
C       1.50168242     0.00000000     0.00000000
O       1.99935599     1.26165692     0.00000000
O       2.21003263    -0.97201393     0.00007509
H       2.96637189     1.18264569     0.00005633
H      -0.36991305     0.52964945     0.87921567
H      -0.36994768     0.52996114    -0.87901136
H      -0.36380470    -1.02331507    -0.00015940
C       5.12214566    -5.45376138    -1.40991029
C       4.62702575    -4.76682501    -0.16973901
O       5.02456662    -5.41739729     0.95194461
O       3.96084426    -3.76614063    -0.13226770
H       4.67060659    -4.92001086     1.70605440
H       6.21187073    -5.50514481    -1.39430779
H       4.74821787    -6.47829745    -1.43965774
H       4.78643248    -4.90794779    -2.28678645
16 
# or16: geometry number 15. O4-O12 distance: 3.2 
C       0.00000000     0.00000000     0.00000000
C       1.50168242     0.00000000     0.00000000
O       1.99935599     1.26165692     0.00000000
O       2.21003263    -0.97201393     0.00007509
H       2.96637189     1.18264569     0.00005633
H      -0.36991305     0.52964945     0.87921567
H      -0.36994768     0.52996114    -0.87901136
H      -0.36380470    -1.02331507    -0.00015940
C       5.06909076    -5.36909088    -1.40589991
C       4.57397085    -4.68215451    -0.16572863
O       4.97151172    -5.33272679     0.95595499
O       3.90778936    -3.68147013    -0.12825732
H       4.61755169    -4.83534036     1.71006478
H       6.15881583    -5.42047431    -1.39029741
H       4.69516297    -6.39362695    -1.43564736
H       4.73337758    -4.82327729    -2.28277607
16 
# or16: geometry number 16. O4-O12 distance: 3.1 
C       0.00000000     0.00000000     0.00000000
C       1.50168242     0.00000000     0.00000000
O       1.99935599     1.26165692     0.00000000
O       2.21003263    -0.97201393     0.00007509
H       2.96637189     1.18264569     0.00005633
H      -0.36991305     0.52964945     0.87921567
H      -0.36994768     0.52996114    -0.87901136
H      -0.36380470    -1.02331507    -0.00015940
C       5.01603586    -5.28442037    -1.40188952
C       4.52091595    -4.59748400    -0.16171824
O       4.91845682    -5.24805628     0.95996538
O       3.85473446    -3.59679962    -0.12424693
H       4.56449679    -4.75066985     1.71407517
H       6.10576093    -5.33580380    -1.38628702
H       4.64210807    -6.30895644    -1.43163697
H       4.68032268    -4.73860678    -2.27876568
16 
# or16: geometry number 17. O4-O12 distance: 3 
C       0.00000000     0.00000000     0.00000000
C       1.50168242     0.00000000     0.00000000
O       1.99935599     1.26165692     0.00000000
O       2.21003263    -0.97201393     0.00007509
H       2.96637189     1.18264569     0.00005633
H      -0.36991305     0.52964945     0.87921567
H      -0.36994768     0.52996114    -0.87901136
H      -0.36380470    -1.02331507    -0.00015940
C       4.96298096    -5.19974986    -1.39787913
C       4.46786105    -4.51281349    -0.15770785
O       4.86540192    -5.16338577     0.96397577
O       3.80167956    -3.51212911    -0.12023654
H       4.51144189    -4.66599934     1.71808556
H       6.05270603    -5.25113329    -1.38227663
H       4.58905317    -6.22428593    -1.42762658
H       4.62726778    -4.65393627    -2.27475529
16 
# or16: geometry number 18. O4-O12 distance: 2.9 
C       0.00000000     0.00000000     0.00000000
C       1.50168242     0.00000000     0.00000000
O       1.99935599     1.26165692     0.00000000
O       2.21003263    -0.97201393     0.00007509
H       2.96637189     1.18264569     0.00005633
H      -0.36991305     0.52964945     0.87921567
H      -0.36994768     0.52996114    -0.87901136
H      -0.36380470    -1.02331507    -0.00015940
C       4.90992607    -5.11507936    -1.39386874
C       4.41480616    -4.42814299    -0.15369746
O       4.81234703    -5.07871527     0.96798616
O       3.74862467    -3.42745861    -0.11622615
H       4.45838700    -4.58132884     1.72209595
H       5.99965114    -5.16646279    -1.37826624
H       4.53599828    -6.13961543    -1.42361619
H       4.57421289    -4.56926577    -2.27074490
16 
# or16: geometry number 19. O4-O12 distance: 2.8 
C       0.00000000     0.00000000     0.00000000
C       1.50168242     0.00000000     0.00000000
O       1.99935599     1.26165692     0.00000000
O       2.21003263    -0.97201393     0.00007509
H       2.96637189     1.18264569     0.00005633
H      -0.36991305     0.52964945     0.87921567
H      -0.36994768     0.52996114    -0.87901136
H      -0.36380470    -1.02331507    -0.00015940
C       4.85687117    -5.03040885    -1.38985836
C       4.36175126    -4.34347248    -0.14968708
O       4.75929213    -4.99404476     0.97199654
O       3.69556977    -3.34278810    -0.11221577
H       4.40533210    -4.49665833     1.72610633
H       5.94659624    -5.08179228    -1.37425586
H       4.48294338    -6.05494492    -1.41960581
H       4.52115799    -4.48459526    -2.26673452
16 
# or16: geometry number 20. O4-O12 distance: 2.7 
C       0.00000000     0.00000000     0.00000000
C       1.50168242     0.00000000     0.00000000
O       1.99935599     1.26165692     0.00000000
O       2.21003263    -0.97201393     0.00007509
H       2.96637189     1.18264569     0.00005633
H      -0.36991305     0.52964945     0.87921567
H      -0.36994768     0.52996114    -0.87901136
H      -0.36380470    -1.02331507    -0.00015940
C       4.80381627    -4.94573835    -1.38584797
C       4.30869636    -4.25880198    -0.14567669
O       4.70623723    -4.90937426     0.97600693
O       3.64251487    -3.25811760    -0.10820538
H       4.35227720    -4.41198783     1.73011672
H       5.89354134    -4.99712178    -1.37024547
H       4.42988848    -5.97027442    -1.41559542
H       4.46810309    -4.39992476    -2.26272413
16 
# or16: geometry number 21. O4-O12 distance: 2.6 
C       0.00000000     0.00000000     0.00000000
C       1.50168242     0.00000000     0.00000000
O       1.99935599     1.26165692     0.00000000
O       2.21003263    -0.97201393     0.00007509
H       2.96637189     1.18264569     0.00005633
H      -0.36991305     0.52964945     0.87921567
H      -0.36994768     0.52996114    -0.87901136
H      -0.36380470    -1.02331507    -0.00015940
C       4.75076137    -4.86106784    -1.38183758
C       4.25564146    -4.17413147    -0.14166630
O       4.65318233    -4.82470375     0.98001732
O       3.58945997    -3.17344709    -0.10419499
H       4.29922230    -4.32731732     1.73412711
H       5.84048644    -4.91245127    -1.36623508
H       4.37683358    -5.88560391    -1.41158503
H       4.41504819    -4.31525425    -2.25871374
16 
# or16: geometry number 22. O4-O12 distance: 2.5 
C       0.00000000     0.00000000     0.00000000
C       1.50168242     0.00000000     0.00000000
O       1.99935599     1.26165692     0.00000000
O       2.21003263    -0.97201393     0.00007509
H       2.96637189     1.18264569     0.00005633
H      -0.36991305     0.52964945     0.87921567
H      -0.36994768     0.52996114    -0.87901136
H      -0.36380470    -1.02331507    -0.00015940
C       4.69770648    -4.77639733    -1.37782719
C       4.20258657    -4.08946096    -0.13765591
O       4.60012744    -4.74003324     0.98402771
O       3.53640508    -3.08877658    -0.10018460
H       4.24616741    -4.24264681     1.73813750
H       5.78743155    -4.82778076    -1.36222469
H       4.32377869    -5.80093340    -1.40757464
H       4.36199330    -4.23058374    -2.25470335
16 
# or16: geometry number 23. O4-O12 distance: 2.45 
C       0.00000000     0.00000000     0.00000000
C       1.50168242     0.00000000     0.00000000
O       1.99935599     1.26165692     0.00000000
O       2.21003263    -0.97201393     0.00007509
H       2.96637189     1.18264569     0.00005633
H      -0.36991305     0.52964945     0.87921567
H      -0.36994768     0.52996114    -0.87901136
H      -0.36380470    -1.02331507    -0.00015940
C       4.67117903    -4.73406208    -1.37582200
C       4.17605912    -4.04712571    -0.13565072
O       4.57359999    -4.69769799     0.98603290
O       3.50987763    -3.04644133    -0.09817941
H       4.21963996    -4.20031156     1.74014269
H       5.76090410    -4.78544551    -1.36021950
H       4.29725124    -5.75859815    -1.40556945
H       4.33546585    -4.18824849    -2.25269816
16 
# or16: geometry number 24. O4-O12 distance: 2.4 
C       0.00000000     0.00000000     0.00000000
C       1.50168242     0.00000000     0.00000000
O       1.99935599     1.26165692     0.00000000
O       2.21003263    -0.97201393     0.00007509
H       2.96637189     1.18264569     0.00005633
H      -0.36991305     0.52964945     0.87921567
H      -0.36994768     0.52996114    -0.87901136
H      -0.36380470    -1.02331507    -0.00015940
C       4.64465158    -4.69172683    -1.37381681
C       4.14953167    -4.00479046    -0.13364553
O       4.54707254    -4.65536274     0.98803809
O       3.48335018    -3.00410608    -0.09617422
H       4.19311251    -4.15797631     1.74214788
H       5.73437665    -4.74311026    -1.35821431
H       4.27072379    -5.71626290    -1.40356426
H       4.30893840    -4.14591324    -2.25069297
16 
# or16: geometry number 25. O4-O12 distance: 2.35 
C       0.00000000     0.00000000     0.00000000
C       1.50168242     0.00000000     0.00000000
O       1.99935599     1.26165692     0.00000000
O       2.21003263    -0.97201393     0.00007509
H       2.96637189     1.18264569     0.00005633
H      -0.36991305     0.52964945     0.87921567
H      -0.36994768     0.52996114    -0.87901136
H      -0.36380470    -1.02331507    -0.00015940
C       4.61812413    -4.64939157    -1.37181161
C       4.12300422    -3.96245520    -0.13164033
O       4.52054509    -4.61302748     0.99004329
O       3.45682273    -2.96177082    -0.09416902
H       4.16658506    -4.11564105     1.74415308
H       5.70784920    -4.70077500    -1.35620911
H       4.24419634    -5.67392764    -1.40155906
H       4.28241095    -4.10357798    -2.24868777
16 
# or16: geometry number 26. O4-O12 distance: 2.3 
C       0.00000000     0.00000000     0.00000000
C       1.50168242     0.00000000     0.00000000
O       1.99935599     1.26165692     0.00000000
O       2.21003263    -0.97201393     0.00007509
H       2.96637189     1.18264569     0.00005633
H      -0.36991305     0.52964945     0.87921567
H      -0.36994768     0.52996114    -0.87901136
H      -0.36380470    -1.02331507    -0.00015940
C       4.59159668    -4.60705632    -1.36980642
C       4.09647677    -3.92011995    -0.12963514
O       4.49401764    -4.57069223     0.99204848
O       3.43029528    -2.91943557    -0.09216383
H       4.14005761    -4.07330580     1.74615827
H       5.68132175    -4.65843975    -1.35420392
H       4.21766889    -5.63159239    -1.39955387
H       4.25588350    -4.06124273    -2.24668258
16 
# or16: geometry number 27. O4-O12 distance: 2.25 
C       0.00000000     0.00000000     0.00000000
C       1.50168242     0.00000000     0.00000000
O       1.99935599     1.26165692     0.00000000
O       2.21003263    -0.97201393     0.00007509
H       2.96637189     1.18264569     0.00005633
H      -0.36991305     0.52964945     0.87921567
H      -0.36994768     0.52996114    -0.87901136
H      -0.36380470    -1.02331507    -0.00015940
C       4.56506923    -4.56472107    -1.36780122
C       4.06994932    -3.87778470    -0.12762994
O       4.46749019    -4.52835698     0.99405368
O       3.40376783    -2.87710032    -0.09015863
H       4.11353016    -4.03097055     1.74816347
H       5.65479430    -4.61610450    -1.35219872
H       4.19114144    -5.58925714    -1.39754867
H       4.22935605    -4.01890748    -2.24467738
16 
# or16: geometry number 28. O4-O12 distance: 2.2 
C       0.00000000     0.00000000     0.00000000
C       1.50168242     0.00000000     0.00000000
O       1.99935599     1.26165692     0.00000000
O       2.21003263    -0.97201393     0.00007509
H       2.96637189     1.18264569     0.00005633
H      -0.36991305     0.52964945     0.87921567
H      -0.36994768     0.52996114    -0.87901136
H      -0.36380470    -1.02331507    -0.00015940
C       4.53854178    -4.52238581    -1.36579603
C       4.04342187    -3.83544944    -0.12562475
O       4.44096274    -4.48602172     0.99605887
O       3.37724038    -2.83476506    -0.08815344
H       4.08700271    -3.98863529     1.75016866
H       5.62826685    -4.57376924    -1.35019353
H       4.16461399    -5.54692188    -1.39554348
H       4.20282860    -3.97657222    -2.24267219
16 
# or16: geometry number 29. O4-O12 distance: 2.15 
C       0.00000000     0.00000000     0.00000000
C       1.50168242     0.00000000     0.00000000
O       1.99935599     1.26165692     0.00000000
O       2.21003263    -0.97201393     0.00007509
H       2.96637189     1.18264569     0.00005633
H      -0.36991305     0.52964945     0.87921567
H      -0.36994768     0.52996114    -0.87901136
H      -0.36380470    -1.02331507    -0.00015940
C       4.51201433    -4.48005056    -1.36379084
C       4.01689442    -3.79311419    -0.12361956
O       4.41443529    -4.44368647     0.99806406
O       3.35071293    -2.79242981    -0.08614825
H       4.06047526    -3.94630004     1.75217385
H       5.60173940    -4.53143399    -1.34818834
H       4.13808654    -5.50458663    -1.39353829
H       4.17630115    -3.93423697    -2.24066700
16 
# or16: geometry number 30. O4-O12 distance: 2.1 
C       0.00000000     0.00000000     0.00000000
C       1.50168242     0.00000000     0.00000000
O       1.99935599     1.26165692     0.00000000
O       2.21003263    -0.97201393     0.00007509
H       2.96637189     1.18264569     0.00005633
H      -0.36991305     0.52964945     0.87921567
H      -0.36994768     0.52996114    -0.87901136
H      -0.36380470    -1.02331507    -0.00015940
C       4.48548688    -4.43771531    -1.36178564
C       3.99036697    -3.75077894    -0.12161436
O       4.38790784    -4.40135122     1.00006926
O       3.32418548    -2.75009456    -0.08414305
H       4.03394781    -3.90396479     1.75417905
H       5.57521195    -4.48909874    -1.34618314
H       4.11155909    -5.46225138    -1.39153309
H       4.14977370    -3.89190172    -2.23866180
