16 
# or19: geometry number 1. H5-H13 distance: 10 
C       0.00000000     0.00000000     0.00000000
C       1.50168242     0.00000000     0.00000000
O       1.99935599     1.26165692     0.00000000
O       2.21003263    -0.97201393     0.00007509
H       2.96637189     1.18264569     0.00005633
H      -0.36991305     0.52964945     0.87921567
H      -0.36994768     0.52996114    -0.87901136
H      -0.36380470    -1.02331507    -0.00015940
C      15.90876395     1.00255687    -0.56873434
C      14.40992547     1.08591342    -0.52892268
O      13.84299113    -0.14615145    -0.52125319
O      13.75700518     2.09573128    -0.50581202
H      12.88220455    -0.01358585    -0.49521398
H      16.27156398     0.44806005     0.29803773
H      16.22546819     0.45802497    -1.45955672
H      16.32881655     2.00408326    -0.57405777
16 
# or19: geometry number 2. H5-H13 distance: 8 
C       0.00000000     0.00000000     0.00000000
C       1.50168242     0.00000000     0.00000000
O       1.99935599     1.26165692     0.00000000
O       2.21003263    -0.97201393     0.00007509
H       2.96637189     1.18264569     0.00005633
H      -0.36991305     0.52964945     0.87921567
H      -0.36994768     0.52996114    -0.87901136
H      -0.36380470    -1.02331507    -0.00015940
C      13.92559742     1.24180318    -0.46968028
C      12.42675894     1.32515973    -0.42986862
O      11.85982460     0.09309486    -0.42219913
O      11.77383865     2.33497759    -0.40675796
H      10.89903802     0.22566046    -0.39615992
H      14.28839745     0.68730636     0.39709179
H      14.24230166     0.69727128    -1.36050266
H      14.34565002     2.24332957    -0.47500371
16 
# or19: geometry number 3. H5-H13 distance: 6 
C       0.00000000     0.00000000     0.00000000
C       1.50168242     0.00000000     0.00000000
O       1.99935599     1.26165692     0.00000000
O       2.21003263    -0.97201393     0.00007509
H       2.96637189     1.18264569     0.00005633
H      -0.36991305     0.52964945     0.87921567
H      -0.36994768     0.52996114    -0.87901136
H      -0.36380470    -1.02331507    -0.00015940
C      11.94243089     1.48104948    -0.37062622
C      10.44359241     1.56440603    -0.33081456
O       9.87665807     0.33234116    -0.32314507
O       9.79067212     2.57422389    -0.30770390
H       8.91587149     0.46490676    -0.29710586
H      12.30523092     0.92655266     0.49614585
H      12.25913513     0.93651758    -1.26144860
H      12.36248349     2.48257587    -0.37594965
16 
# or19: geometry number 4. H5-H13 distance: 5 
C       0.00000000     0.00000000     0.00000000
C       1.50168242     0.00000000     0.00000000
O       1.99935599     1.26165692     0.00000000
O       2.21003263    -0.97201393     0.00007509
H       2.96637189     1.18264569     0.00005633
H      -0.36991305     0.52964945     0.87921567
H      -0.36994768     0.52996114    -0.87901136
H      -0.36380470    -1.02331507    -0.00015940
C      10.95084762     1.60067264    -0.32109918
C       9.45200914     1.68402919    -0.28128752
O       8.88507480     0.45196432    -0.27361803
O       8.79908885     2.69384705    -0.25817686
H       7.92428822     0.58452992    -0.24757882
H      11.31364765     1.04617582     0.54567289
H      11.26755186     1.05614074    -1.21192156
H      11.37090022     2.60219903    -0.32642261
16 
# or19: geometry number 5. H5-H13 distance: 4.5 
C       0.00000000     0.00000000     0.00000000
C       1.50168242     0.00000000     0.00000000
O       1.99935599     1.26165692     0.00000000
O       2.21003263    -0.97201393     0.00007509
H       2.96637189     1.18264569     0.00005633
H      -0.36991305     0.52964945     0.87921567
H      -0.36994768     0.52996114    -0.87901136
H      -0.36380470    -1.02331507    -0.00015940
C      10.45505599     1.66048422    -0.29633567
C       8.95621751     1.74384077    -0.25652401
O       8.38928317     0.51177590    -0.24885452
O       8.30329722     2.75365863    -0.23341335
H       7.42849659     0.64434150    -0.22281531
H      10.81785602     1.10598740     0.57043640
H      10.77176023     1.11595232    -1.18715805
H      10.87510859     2.66201061    -0.30165910
16 
# or19: geometry number 6. H5-H13 distance: 4 
C       0.00000000     0.00000000     0.00000000
C       1.50168242     0.00000000     0.00000000
O       1.99935599     1.26165692     0.00000000
O       2.21003263    -0.97201393     0.00007509
H       2.96637189     1.18264569     0.00005633
H      -0.36991305     0.52964945     0.87921567
H      -0.36994768     0.52996114    -0.87901136
H      -0.36380470    -1.02331507    -0.00015940
C       9.95926436     1.72029579    -0.27157215
C       8.46042588     1.80365234    -0.23176049
O       7.89349154     0.57158747    -0.22409100
O       7.80750559     2.81347020    -0.20864983
H       6.93270496     0.70415307    -0.19805179
H      10.32206439     1.16579897     0.59519992
H      10.27596860     1.17576389    -1.16239453
H      10.37931696     2.72182218    -0.27689558
16 
# or19: geometry number 7. H5-H13 distance: 3.7 
C       0.00000000     0.00000000     0.00000000
C       1.50168242     0.00000000     0.00000000
O       1.99935599     1.26165692     0.00000000
O       2.21003263    -0.97201393     0.00007509
H       2.96637189     1.18264569     0.00005633
H      -0.36991305     0.52964945     0.87921567
H      -0.36994768     0.52996114    -0.87901136
H      -0.36380470    -1.02331507    -0.00015940
C       9.66178938     1.75618274    -0.25671404
C       8.16295090     1.83953929    -0.21690238
O       7.59601656     0.60747442    -0.20923289
O       7.51003061     2.84935715    -0.19379172
H       6.63522998     0.74004002    -0.18319368
H      10.02458941     1.20168592     0.61005803
H       9.97849362     1.21165084    -1.14753642
H      10.08184198     2.75770913    -0.26203747
16 
# or19: geometry number 8. H5-H13 distance: 3.4 
C       0.00000000     0.00000000     0.00000000
C       1.50168242     0.00000000     0.00000000
O       1.99935599     1.26165692     0.00000000
O       2.21003263    -0.97201393     0.00007509
H       2.96637189     1.18264569     0.00005633
H      -0.36991305     0.52964945     0.87921567
H      -0.36994768     0.52996114    -0.87901136
H      -0.36380470    -1.02331507    -0.00015940
C       9.36431440     1.79206969    -0.24185594
C       7.86547592     1.87542624    -0.20204428
O       7.29854158     0.64336137    -0.19437479
O       7.21255563     2.88524410    -0.17893362
H       6.33775500     0.77592697    -0.16833558
H       9.72711443     1.23757287     0.62491613
H       9.68101864     1.24753779    -1.13267832
H       9.78436700     2.79359608    -0.24717937
16 
# or19: geometry number 9. H5-H13 distance: 3.1 
C       0.00000000     0.00000000     0.00000000
C       1.50168242     0.00000000     0.00000000
O       1.99935599     1.26165692     0.00000000
O       2.21003263    -0.97201393     0.00007509
H       2.96637189     1.18264569     0.00005633
H      -0.36991305     0.52964945     0.87921567
H      -0.36994768     0.52996114    -0.87901136
H      -0.36380470    -1.02331507    -0.00015940
C       9.06683942     1.82795663    -0.22699783
C       7.56800094     1.91131318    -0.18718617
O       7.00106660     0.67924831    -0.17951668
O       6.91508065     2.92113104    -0.16407551
H       6.04028002     0.81181391    -0.15347747
H       9.42963945     1.27345981     0.63977424
H       9.38354366     1.28342473    -1.11782021
H       9.48689202     2.82948302    -0.23232126
16 
# or19: geometry number 10. H5-H13 distance: 2.9 
C       0.00000000     0.00000000     0.00000000
C       1.50168242     0.00000000     0.00000000
O       1.99935599     1.26165692     0.00000000
O       2.21003263    -0.97201393     0.00007509
H       2.96637189     1.18264569     0.00005633
H      -0.36991305     0.52964945     0.87921567
H      -0.36994768     0.52996114    -0.87901136
H      -0.36380470    -1.02331507    -0.00015940
C       8.86852276     1.85188126    -0.21709242
C       7.36968428     1.93523781    -0.17728076
O       6.80274994     0.70317294    -0.16961127
O       6.71676399     2.94505567    -0.15417010
H       5.84196336     0.83573854    -0.14357206
H       9.23132279     1.29738444     0.64967965
H       9.18522700     1.30734936    -1.10791480
H       9.28857536     2.85340765    -0.22241585
16 
# or19: geometry number 11. H5-H13 distance: 2.7 
C       0.00000000     0.00000000     0.00000000
C       1.50168242     0.00000000     0.00000000
O       1.99935599     1.26165692     0.00000000
O       2.21003263    -0.97201393     0.00007509
H       2.96637189     1.18264569     0.00005633
H      -0.36991305     0.52964945     0.87921567
H      -0.36994768     0.52996114    -0.87901136
H      -0.36380470    -1.02331507    -0.00015940
C       8.67020611     1.87580589    -0.20718701
C       7.17136763     1.95916244    -0.16737535
O       6.60443329     0.72709757    -0.15970586
O       6.51844734     2.96898030    -0.14426469
H       5.64364671     0.85966317    -0.13366665
H       9.03300614     1.32130907     0.65958506
H       8.98691035     1.33127399    -1.09800939
H       9.09025871     2.87733228    -0.21251044
16 
# or19: geometry number 12. H5-H13 distance: 2.5 
C       0.00000000     0.00000000     0.00000000
C       1.50168242     0.00000000     0.00000000
O       1.99935599     1.26165692     0.00000000
O       2.21003263    -0.97201393     0.00007509
H       2.96637189     1.18264569     0.00005633
H      -0.36991305     0.52964945     0.87921567
H      -0.36994768     0.52996114    -0.87901136
H      -0.36380470    -1.02331507    -0.00015940
C       8.47188946     1.89973052    -0.19728161
C       6.97305098     1.98308707    -0.15746995
O       6.40611664     0.75102220    -0.14980046
O       6.32013069     2.99290493    -0.13435929
H       5.44533006     0.88358780    -0.12376125
H       8.83468949     1.34523370     0.66949046
H       8.78859370     1.35519862    -1.08810399
H       8.89194206     2.90125691    -0.20260504
16 
# or19: geometry number 13. H5-H13 distance: 2.4 
C       0.00000000     0.00000000     0.00000000
C       1.50168242     0.00000000     0.00000000
O       1.99935599     1.26165692     0.00000000
O       2.21003263    -0.97201393     0.00007509
H       2.96637189     1.18264569     0.00005633
H      -0.36991305     0.52964945     0.87921567
H      -0.36994768     0.52996114    -0.87901136
H      -0.36380470    -1.02331507    -0.00015940
C       8.37273113     1.91169284    -0.19232890
C       6.87389265     1.99504939    -0.15251724
O       6.30695831     0.76298452    -0.14484775
O       6.22097236     3.00486725    -0.12940658
H       5.34617173     0.89555012    -0.11880854
H       8.73553116     1.35719602     0.67444317
H       8.68943537     1.36716094    -1.08315128
H       8.79278373     2.91321923    -0.19765233
16 
# or19: geometry number 14. H5-H13 distance: 2.3 
C       0.00000000     0.00000000     0.00000000
C       1.50168242     0.00000000     0.00000000
O       1.99935599     1.26165692     0.00000000
O       2.21003263    -0.97201393     0.00007509
H       2.96637189     1.18264569     0.00005633
H      -0.36991305     0.52964945     0.87921567
H      -0.36994768     0.52996114    -0.87901136
H      -0.36380470    -1.02331507    -0.00015940
C       8.27357280     1.92365515    -0.18737620
C       6.77473432     2.00701170    -0.14756454
O       6.20779998     0.77494683    -0.13989505
O       6.12181403     3.01682956    -0.12445388
H       5.24701340     0.90751243    -0.11385584
H       8.63637283     1.36915833     0.67939587
H       8.59027704     1.37912325    -1.07819858
H       8.69362540     2.92518154    -0.19269963
16 
# or19: geometry number 15. H5-H13 distance: 2.2 
C       0.00000000     0.00000000     0.00000000
C       1.50168242     0.00000000     0.00000000
O       1.99935599     1.26165692     0.00000000
O       2.21003263    -0.97201393     0.00007509
H       2.96637189     1.18264569     0.00005633
H      -0.36991305     0.52964945     0.87921567
H      -0.36994768     0.52996114    -0.87901136
H      -0.36380470    -1.02331507    -0.00015940
C       8.17441448     1.93561747    -0.18242350
C       6.67557600     2.01897402    -0.14261184
O       6.10864166     0.78690915    -0.13494235
O       6.02265571     3.02879188    -0.11950118
H       5.14785508     0.91947475    -0.10890314
H       8.53721451     1.38112065     0.68434857
H       8.49111872     1.39108557    -1.07324588
H       8.59446708     2.93714386    -0.18774693
16 
# or19: geometry number 16. H5-H13 distance: 2.1 
C       0.00000000     0.00000000     0.00000000
C       1.50168242     0.00000000     0.00000000
O       1.99935599     1.26165692     0.00000000
O       2.21003263    -0.97201393     0.00007509
H       2.96637189     1.18264569     0.00005633
H      -0.36991305     0.52964945     0.87921567
H      -0.36994768     0.52996114    -0.87901136
H      -0.36380470    -1.02331507    -0.00015940
C       8.07525615     1.94757979    -0.17747080
C       6.57641767     2.03093634    -0.13765914
O       6.00948333     0.79887147    -0.12998965
O       5.92349738     3.04075420    -0.11454848
H       5.04869675     0.93143707    -0.10395044
H       8.43805618     1.39308297     0.68930127
H       8.39196039     1.40304789    -1.06829318
H       8.49530875     2.94910618    -0.18279423
16 
# or19: geometry number 17. H5-H13 distance: 2.0 
C       0.00000000     0.00000000     0.00000000
C       1.50168242     0.00000000     0.00000000
O       1.99935599     1.26165692     0.00000000
O       2.21003263    -0.97201393     0.00007509
H       2.96637189     1.18264569     0.00005633
H      -0.36991305     0.52964945     0.87921567
H      -0.36994768     0.52996114    -0.87901136
H      -0.36380470    -1.02331507    -0.00015940
C       7.97609782     1.95954210    -0.17251809
C       6.47725934     2.04289865    -0.13270643
O       5.91032500     0.81083378    -0.12503694
O       5.82433905     3.05271651    -0.10959577
H       4.94953842     0.94339938    -0.09899773
H       8.33889785     1.40504528     0.69425398
H       8.29280206     1.41501020    -1.06334047
H       8.39615042     2.96106849    -0.17784152
16 
# or19: geometry number 18. H5-H13 distance: 1.9 
C       0.00000000     0.00000000     0.00000000
C       1.50168242     0.00000000     0.00000000
O       1.99935599     1.26165692     0.00000000
O       2.21003263    -0.97201393     0.00007509
H       2.96637189     1.18264569     0.00005633
H      -0.36991305     0.52964945     0.87921567
H      -0.36994768     0.52996114    -0.87901136
H      -0.36380470    -1.02331507    -0.00015940
C       7.87693950     1.97150442    -0.16756539
C       6.37810102     2.05486097    -0.12775373
O       5.81116668     0.82279610    -0.12008424
O       5.72518073     3.06467883    -0.10464307
H       4.85038010     0.95536170    -0.09404503
H       8.23973953     1.41700760     0.69920668
H       8.19364374     1.42697252    -1.05838777
H       8.29699210     2.97303081    -0.17288882
16 
# or19: geometry number 19. H5-H13 distance: 1.8 
C       0.00000000     0.00000000     0.00000000
C       1.50168242     0.00000000     0.00000000
O       1.99935599     1.26165692     0.00000000
O       2.21003263    -0.97201393     0.00007509
H       2.96637189     1.18264569     0.00005633
H      -0.36991305     0.52964945     0.87921567
H      -0.36994768     0.52996114    -0.87901136
H      -0.36380470    -1.02331507    -0.00015940
C       7.77778117     1.98346673    -0.16261269
C       6.27894269     2.06682328    -0.12280103
O       5.71200835     0.83475841    -0.11513154
O       5.62602240     3.07664114    -0.09969037
H       4.75122177     0.96732401    -0.08909233
H       8.14058120     1.42896991     0.70415938
H       8.09448541     1.43893483    -1.05343507
H       8.19783377     2.98499312    -0.16793612
16 
# or19: geometry number 20. H5-H13 distance: 1.7 
C       0.00000000     0.00000000     0.00000000
C       1.50168242     0.00000000     0.00000000
O       1.99935599     1.26165692     0.00000000
O       2.21003263    -0.97201393     0.00007509
H       2.96637189     1.18264569     0.00005633
H      -0.36991305     0.52964945     0.87921567
H      -0.36994768     0.52996114    -0.87901136
H      -0.36380470    -1.02331507    -0.00015940
C       7.67862284     1.99542905    -0.15765998
C       6.17978436     2.07878560    -0.11784832
O       5.61285002     0.84672073    -0.11017883
O       5.52686407     3.08860346    -0.09473766
H       4.65206344     0.97928633    -0.08413962
H       8.04142287     1.44093223     0.70911209
H       7.99532708     1.45089715    -1.04848236
H       8.09867544     2.99695544    -0.16298341
16 
# or19: geometry number 21. H5-H13 distance: 1.6 
C       0.00000000     0.00000000     0.00000000
C       1.50168242     0.00000000     0.00000000
O       1.99935599     1.26165692     0.00000000
O       2.21003263    -0.97201393     0.00007509
H       2.96637189     1.18264569     0.00005633
H      -0.36991305     0.52964945     0.87921567
H      -0.36994768     0.52996114    -0.87901136
H      -0.36380470    -1.02331507    -0.00015940
C       7.57946452     2.00739136    -0.15270728
C       6.08062604     2.09074791    -0.11289562
O       5.51369170     0.85868304    -0.10522613
O       5.42770575     3.10056577    -0.08978496
H       4.55290512     0.99124864    -0.07918692
H       7.94226455     1.45289454     0.71406479
H       7.89616876     1.46285946    -1.04352966
H       7.99951712     3.00891775    -0.15803071
16 
# or19: geometry number 22. H5-H13 distance: 1.5 
C       0.00000000     0.00000000     0.00000000
C       1.50168242     0.00000000     0.00000000
O       1.99935599     1.26165692     0.00000000
O       2.21003263    -0.97201393     0.00007509
H       2.96637189     1.18264569     0.00005633
H      -0.36991305     0.52964945     0.87921567
H      -0.36994768     0.52996114    -0.87901136
H      -0.36380470    -1.02331507    -0.00015940
C       7.48030619     2.01935368    -0.14775458
C       5.98146771     2.10271023    -0.10794292
O       5.41453337     0.87064536    -0.10027343
O       5.32854742     3.11252809    -0.08483226
H       4.45374679     1.00321096    -0.07423422
H       7.84310622     1.46485686     0.71901749
H       7.79701043     1.47482178    -1.03857696
H       7.90035879     3.02088007    -0.15307801
16 
# or19: geometry number 23. H5-H13 distance: 1.4 
C       0.00000000     0.00000000     0.00000000
C       1.50168242     0.00000000     0.00000000
O       1.99935599     1.26165692     0.00000000
O       2.21003263    -0.97201393     0.00007509
H       2.96637189     1.18264569     0.00005633
H      -0.36991305     0.52964945     0.87921567
H      -0.36994768     0.52996114    -0.87901136
H      -0.36380470    -1.02331507    -0.00015940
C       7.38114786     2.03131599    -0.14280187
C       5.88230938     2.11467254    -0.10299021
O       5.31537504     0.88260767    -0.09532072
O       5.22938909     3.12449040    -0.07987955
H       4.35458846     1.01517327    -0.06928151
H       7.74394789     1.47681917     0.72397020
H       7.69785210     1.48678409    -1.03362425
H       7.80120046     3.03284238    -0.14812530
16 
# or19: geometry number 24. H5-H13 distance: 1.35 
C       0.00000000     0.00000000     0.00000000
C       1.50168242     0.00000000     0.00000000
O       1.99935599     1.26165692     0.00000000
O       2.21003263    -0.97201393     0.00007509
H       2.96637189     1.18264569     0.00005633
H      -0.36991305     0.52964945     0.87921567
H      -0.36994768     0.52996114    -0.87901136
H      -0.36380470    -1.02331507    -0.00015940
C       7.33156870     2.03729715    -0.14032552
C       5.83273022     2.12065370    -0.10051386
O       5.26579588     0.88858883    -0.09284437
O       5.17980993     3.13047156    -0.07740320
H       4.30500930     1.02115443    -0.06680516
H       7.69436873     1.48280033     0.72644655
H       7.64827294     1.49276525    -1.03114790
H       7.75162130     3.03882354    -0.14564895
16 
# or19: geometry number 25. H5-H13 distance: 1.3 
C       0.00000000     0.00000000     0.00000000
C       1.50168242     0.00000000     0.00000000
O       1.99935599     1.26165692     0.00000000
O       2.21003263    -0.97201393     0.00007509
H       2.96637189     1.18264569     0.00005633
H      -0.36991305     0.52964945     0.87921567
H      -0.36994768     0.52996114    -0.87901136
H      -0.36380470    -1.02331507    -0.00015940
C       7.28198954     2.04327831    -0.13784917
C       5.78315106     2.12663486    -0.09803751
O       5.21621672     0.89456999    -0.09036802
O       5.13023077     3.13645272    -0.07492685
H       4.25543014     1.02713559    -0.06432881
H       7.64478957     1.48878149     0.72892290
H       7.59869378     1.49874641    -1.02867155
H       7.70204214     3.04480470    -0.14317260
16 
# or19: geometry number 26. H5-H13 distance: 1.25 
C       0.00000000     0.00000000     0.00000000
C       1.50168242     0.00000000     0.00000000
O       1.99935599     1.26165692     0.00000000
O       2.21003263    -0.97201393     0.00007509
H       2.96637189     1.18264569     0.00005633
H      -0.36991305     0.52964945     0.87921567
H      -0.36994768     0.52996114    -0.87901136
H      -0.36380470    -1.02331507    -0.00015940
C       7.23241037     2.04925947    -0.13537282
C       5.73357189     2.13261602    -0.09556116
O       5.16663755     0.90055115    -0.08789167
O       5.08065160     3.14243388    -0.07245050
H       4.20585097     1.03311675    -0.06185246
H       7.59521040     1.49476265     0.73139925
H       7.54911461     1.50472757    -1.02619520
H       7.65246297     3.05078586    -0.14069625
16 
# or19: geometry number 27. H5-H13 distance: 1.2 
C       0.00000000     0.00000000     0.00000000
C       1.50168242     0.00000000     0.00000000
O       1.99935599     1.26165692     0.00000000
O       2.21003263    -0.97201393     0.00007509
H       2.96637189     1.18264569     0.00005633
H      -0.36991305     0.52964945     0.87921567
H      -0.36994768     0.52996114    -0.87901136
H      -0.36380470    -1.02331507    -0.00015940
C       7.18283121     2.05524062    -0.13289647
C       5.68399273     2.13859717    -0.09308481
O       5.11705839     0.90653230    -0.08541532
O       5.03107244     3.14841503    -0.06997415
H       4.15627181     1.03909790    -0.05937611
H       7.54563124     1.50074380     0.73387560
H       7.49953545     1.51070872    -1.02371885
H       7.60288381     3.05676701    -0.13821990
16 
# or19: geometry number 28. H5-H13 distance: 1.15 
C       0.00000000     0.00000000     0.00000000
C       1.50168242     0.00000000     0.00000000
O       1.99935599     1.26165692     0.00000000
O       2.21003263    -0.97201393     0.00007509
H       2.96637189     1.18264569     0.00005633
H      -0.36991305     0.52964945     0.87921567
H      -0.36994768     0.52996114    -0.87901136
H      -0.36380470    -1.02331507    -0.00015940
C       7.13325205     2.06122178    -0.13042012
C       5.63441357     2.14457833    -0.09060846
O       5.06747923     0.91251346    -0.08293897
O       4.98149328     3.15439619    -0.06749780
H       4.10669265     1.04507906    -0.05689976
H       7.49605208     1.50672496     0.73635195
H       7.44995629     1.51668988    -1.02124250
H       7.55330465     3.06274817    -0.13574355
16 
# or19: geometry number 29. H5-H13 distance: 1.1 
C       0.00000000     0.00000000     0.00000000
C       1.50168242     0.00000000     0.00000000
O       1.99935599     1.26165692     0.00000000
O       2.21003263    -0.97201393     0.00007509
H       2.96637189     1.18264569     0.00005633
H      -0.36991305     0.52964945     0.87921567
H      -0.36994768     0.52996114    -0.87901136
H      -0.36380470    -1.02331507    -0.00015940
C       7.08367288     2.06720294    -0.12794376
C       5.58483440     2.15055949    -0.08813210
O       5.01790006     0.91849462    -0.08046261
O       4.93191411     3.16037735    -0.06502144
H       4.05711348     1.05106022    -0.05442340
H       7.44647291     1.51270612     0.73882831
H       7.40037712     1.52267104    -1.01876614
H       7.50372548     3.06872933    -0.13326719
16 
# or19: geometry number 30. H5-H13 distance: 1.05 
C       0.00000000     0.00000000     0.00000000
C       1.50168242     0.00000000     0.00000000
O       1.99935599     1.26165692     0.00000000
O       2.21003263    -0.97201393     0.00007509
H       2.96637189     1.18264569     0.00005633
H      -0.36991305     0.52964945     0.87921567
H      -0.36994768     0.52996114    -0.87901136
H      -0.36380470    -1.02331507    -0.00015940
C       7.03409372     2.07318410    -0.12546741
C       5.53525524     2.15654065    -0.08565575
O       4.96832090     0.92447578    -0.07798626
O       4.88233495     3.16635851    -0.06254509
H       4.00753432     1.05704138    -0.05194705
H       7.39689375     1.51868728     0.74130466
H       7.35079796     1.52865220    -1.01628979
H       7.45414632     3.07471049    -0.13079084
16 
# or19: geometry number 31. H5-H13 distance: 1.0 
C       0.00000000     0.00000000     0.00000000
C       1.50168242     0.00000000     0.00000000
O       1.99935599     1.26165692     0.00000000
O       2.21003263    -0.97201393     0.00007509
H       2.96637189     1.18264569     0.00005633
H      -0.36991305     0.52964945     0.87921567
H      -0.36994768     0.52996114    -0.87901136
H      -0.36380470    -1.02331507    -0.00015940
C       6.98451456     2.07916526    -0.12299106
C       5.48567608     2.16252181    -0.08317940
O       4.91874174     0.93045694    -0.07550991
O       4.83275579     3.17233967    -0.06006874
H       3.95795516     1.06302254    -0.04947070
H       7.34731459     1.52466844     0.74378101
H       7.30121880     1.53463336    -1.01381344
H       7.40456716     3.08069165    -0.12831449
