16 
# or1: geometry number 1. C1-C9 distance: 10 
C       0.00000000     0.00000000     0.00000000
C       1.50168242     0.00000000     0.00000000
O       1.99935599     1.26165692     0.00000000
O       2.21003263    -0.97201393     0.00007509
H       2.96637189     1.18264569     0.00005633
H      -0.36991305     0.52964945     0.87921567
H      -0.36994768     0.52996114    -0.87901136
H      -0.36380470    -1.02331507    -0.00015940
C      -9.97485789     0.02156305     0.70833975
C     -11.47592589    -0.01469285     0.73137111
O     -11.94340156    -1.28764972     0.70891033
O     -12.20709347     0.93966591     0.76549511
H     -12.91189930    -1.23203180     0.72568241
H      -9.57852120    -0.51949728     1.56889501
H      -9.60644242    -0.47852815    -0.18863288
H      -9.63553257     1.05308493     0.72700931
16 
# or1: geometry number 2. C1-C9 distance: 9 
C       0.00000000     0.00000000     0.00000000
C       1.50168242     0.00000000     0.00000000
O       1.99935599     1.26165692     0.00000000
O       2.21003263    -0.97201393     0.00007509
H       2.96637189     1.18264569     0.00005633
H      -0.36991305     0.52964945     0.87921567
H      -0.36994768     0.52996114    -0.87901136
H      -0.36380470    -1.02331507    -0.00015940
C      -8.97737210     0.01940675     0.63750578
C     -10.47844010    -0.01684915     0.66053714
O     -10.94591577    -1.28980602     0.63807636
O     -11.20960768     0.93750961     0.69466114
H     -11.91441351    -1.23418810     0.65484844
H      -8.58103541    -0.52165358     1.49806104
H      -8.60895663    -0.48068445    -0.25946685
H      -8.63804678     1.05092863     0.65617534
16 
# or1: geometry number 3. C1-C9 distance: 8 
C       0.00000000     0.00000000     0.00000000
C       1.50168242     0.00000000     0.00000000
O       1.99935599     1.26165692     0.00000000
O       2.21003263    -0.97201393     0.00007509
H       2.96637189     1.18264569     0.00005633
H      -0.36991305     0.52964945     0.87921567
H      -0.36994768     0.52996114    -0.87901136
H      -0.36380470    -1.02331507    -0.00015940
C      -7.97988631     0.01725044     0.56667180
C      -9.48095431    -0.01900546     0.58970316
O      -9.94842998    -1.29196233     0.56724238
O     -10.21212189     0.93535330     0.62382716
H     -10.91692772    -1.23634441     0.58401446
H      -7.58354962    -0.52380989     1.42722706
H      -7.61147084    -0.48284076    -0.33030083
H      -7.64056099     1.04877232     0.58534136
16 
# or1: geometry number 4. C1-C9 distance: 7 
C       0.00000000     0.00000000     0.00000000
C       1.50168242     0.00000000     0.00000000
O       1.99935599     1.26165692     0.00000000
O       2.21003263    -0.97201393     0.00007509
H       2.96637189     1.18264569     0.00005633
H      -0.36991305     0.52964945     0.87921567
H      -0.36994768     0.52996114    -0.87901136
H      -0.36380470    -1.02331507    -0.00015940
C      -6.98240052     0.01509414     0.49583783
C      -8.48346852    -0.02116176     0.51886919
O      -8.95094419    -1.29411863     0.49640841
O      -9.21463610     0.93319700     0.55299319
H      -9.91944193    -1.23850071     0.51318049
H      -6.58606383    -0.52596619     1.35639309
H      -6.61398505    -0.48499706    -0.40113480
H      -6.64307520     1.04661602     0.51450739
16 
# or1: geometry number 5. C1-C9 distance: 6 
C       0.00000000     0.00000000     0.00000000
C       1.50168242     0.00000000     0.00000000
O       1.99935599     1.26165692     0.00000000
O       2.21003263    -0.97201393     0.00007509
H       2.96637189     1.18264569     0.00005633
H      -0.36991305     0.52964945     0.87921567
H      -0.36994768     0.52996114    -0.87901136
H      -0.36380470    -1.02331507    -0.00015940
C      -5.98491473     0.01293783     0.42500385
C      -7.48598273    -0.02331807     0.44803521
O      -7.95345840    -1.29627494     0.42557443
O      -8.21715031     0.93104069     0.48215921
H      -8.92195614    -1.24065702     0.44234651
H      -5.58857804    -0.52812250     1.28555911
H      -5.61649926    -0.48715337    -0.47196878
H      -5.64558941     1.04445971     0.44367341
16 
# or1: geometry number 6. C1-C9 distance: 5 
C       0.00000000     0.00000000     0.00000000
C       1.50168242     0.00000000     0.00000000
O       1.99935599     1.26165692     0.00000000
O       2.21003263    -0.97201393     0.00007509
H       2.96637189     1.18264569     0.00005633
H      -0.36991305     0.52964945     0.87921567
H      -0.36994768     0.52996114    -0.87901136
H      -0.36380470    -1.02331507    -0.00015940
C      -4.98742894     0.01078153     0.35416988
C      -6.48849694    -0.02547437     0.37720124
O      -6.95597261    -1.29843124     0.35474046
O      -7.21966452     0.92888439     0.41132524
H      -7.92447035    -1.24281332     0.37151254
H      -4.59109225    -0.53027880     1.21472514
H      -4.61901347    -0.48930967    -0.54280275
H      -4.64810362     1.04230341     0.37283944
16 
# or1: geometry number 7. C1-C9 distance: 4.7 
C       0.00000000     0.00000000     0.00000000
C       1.50168242     0.00000000     0.00000000
O       1.99935599     1.26165692     0.00000000
O       2.21003263    -0.97201393     0.00007509
H       2.96637189     1.18264569     0.00005633
H      -0.36991305     0.52964945     0.87921567
H      -0.36994768     0.52996114    -0.87901136
H      -0.36380470    -1.02331507    -0.00015940
C      -4.68818321     0.01013464     0.33291968
C      -6.18925121    -0.02612126     0.35595104
O      -6.65672688    -1.29907813     0.33349026
O      -6.92041879     0.92823750     0.39007504
H      -7.62522462    -1.24346021     0.35026234
H      -4.29184652    -0.53092569     1.19347494
H      -4.31976774    -0.48995656    -0.56405295
H      -4.34885789     1.04165652     0.35158924
16 
# or1: geometry number 8. C1-C9 distance: 4.4 
C       0.00000000     0.00000000     0.00000000
C       1.50168242     0.00000000     0.00000000
O       1.99935599     1.26165692     0.00000000
O       2.21003263    -0.97201393     0.00007509
H       2.96637189     1.18264569     0.00005633
H      -0.36991305     0.52964945     0.87921567
H      -0.36994768     0.52996114    -0.87901136
H      -0.36380470    -1.02331507    -0.00015940
C      -4.38893747     0.00948774     0.31166949
C      -5.89000547    -0.02676816     0.33470085
O      -6.35748114    -1.29972503     0.31224007
O      -6.62117305     0.92759060     0.36882485
H      -7.32597888    -1.24410711     0.32901215
H      -3.99260078    -0.53157259     1.17222475
H      -4.02052200    -0.49060346    -0.58530314
H      -4.04961215     1.04100962     0.33033905
16 
# or1: geometry number 9. C1-C9 distance: 4.2 
C       0.00000000     0.00000000     0.00000000
C       1.50168242     0.00000000     0.00000000
O       1.99935599     1.26165692     0.00000000
O       2.21003263    -0.97201393     0.00007509
H       2.96637189     1.18264569     0.00005633
H      -0.36991305     0.52964945     0.87921567
H      -0.36994768     0.52996114    -0.87901136
H      -0.36380470    -1.02331507    -0.00015940
C      -4.18944031     0.00905648     0.29750270
C      -5.69050831    -0.02719942     0.32053406
O      -6.15798398    -1.30015629     0.29807328
O      -6.42167589     0.92715934     0.35465806
H      -7.12648172    -1.24453837     0.31484536
H      -3.79310362    -0.53200385     1.15805796
H      -3.82102484    -0.49103472    -0.59946993
H      -3.85011499     1.04057836     0.31617226
16 
# or1: geometry number 10. C1-C9 distance: 4 
C       0.00000000     0.00000000     0.00000000
C       1.50168242     0.00000000     0.00000000
O       1.99935599     1.26165692     0.00000000
O       2.21003263    -0.97201393     0.00007509
H       2.96637189     1.18264569     0.00005633
H      -0.36991305     0.52964945     0.87921567
H      -0.36994768     0.52996114    -0.87901136
H      -0.36380470    -1.02331507    -0.00015940
C      -3.98994315     0.00862522     0.28333590
C      -5.49101115    -0.02763068     0.30636726
O      -5.95848682    -1.30058755     0.28390648
O      -6.22217873     0.92672808     0.34049126
H      -6.92698456    -1.24496963     0.30067856
H      -3.59360646    -0.53243511     1.14389116
H      -3.62152768    -0.49146598    -0.61363673
H      -3.65061783     1.04014710     0.30200546
16 
# or1: geometry number 11. C1-C9 distance: 3.8 
C       0.00000000     0.00000000     0.00000000
C       1.50168242     0.00000000     0.00000000
O       1.99935599     1.26165692     0.00000000
O       2.21003263    -0.97201393     0.00007509
H       2.96637189     1.18264569     0.00005633
H      -0.36991305     0.52964945     0.87921567
H      -0.36994768     0.52996114    -0.87901136
H      -0.36380470    -1.02331507    -0.00015940
C      -3.79044600     0.00819396     0.26916911
C      -5.29151400    -0.02806194     0.29220047
O      -5.75898967    -1.30101881     0.26973969
O      -6.02268158     0.92629682     0.32632447
H      -6.72748741    -1.24540089     0.28651177
H      -3.39410931    -0.53286637     1.12972437
H      -3.42203053    -0.49189724    -0.62780352
H      -3.45112068     1.03971584     0.28783867
16 
# or1: geometry number 12. C1-C9 distance: 3.7 
C       0.00000000     0.00000000     0.00000000
C       1.50168242     0.00000000     0.00000000
O       1.99935599     1.26165692     0.00000000
O       2.21003263    -0.97201393     0.00007509
H       2.96637189     1.18264569     0.00005633
H      -0.36991305     0.52964945     0.87921567
H      -0.36994768     0.52996114    -0.87901136
H      -0.36380470    -1.02331507    -0.00015940
C      -3.69069742     0.00797833     0.26208571
C      -5.19176542    -0.02827757     0.28511707
O      -5.65924109    -1.30123444     0.26265629
O      -5.92293300     0.92608119     0.31924107
H      -6.62773883    -1.24561652     0.27942837
H      -3.29436073    -0.53308200     1.12264097
H      -3.32228195    -0.49211287    -0.63488692
H      -3.35137210     1.03950021     0.28075527
16 
# or1: geometry number 13. C1-C9 distance: 3.6 
C       0.00000000     0.00000000     0.00000000
C       1.50168242     0.00000000     0.00000000
O       1.99935599     1.26165692     0.00000000
O       2.21003263    -0.97201393     0.00007509
H       2.96637189     1.18264569     0.00005633
H      -0.36991305     0.52964945     0.87921567
H      -0.36994768     0.52996114    -0.87901136
H      -0.36380470    -1.02331507    -0.00015940
C      -3.59094884     0.00776270     0.25500231
C      -5.09201684    -0.02849320     0.27803367
O      -5.55949251    -1.30145007     0.25557289
O      -5.82318442     0.92586556     0.31215767
H      -6.52799025    -1.24583215     0.27234497
H      -3.19461215    -0.53329763     1.11555757
H      -3.22253337    -0.49232850    -0.64197032
H      -3.25162352     1.03928458     0.27367187
16 
# or1: geometry number 14. C1-C9 distance: 3.5 
C       0.00000000     0.00000000     0.00000000
C       1.50168242     0.00000000     0.00000000
O       1.99935599     1.26165692     0.00000000
O       2.21003263    -0.97201393     0.00007509
H       2.96637189     1.18264569     0.00005633
H      -0.36991305     0.52964945     0.87921567
H      -0.36994768     0.52996114    -0.87901136
H      -0.36380470    -1.02331507    -0.00015940
C      -3.49120026     0.00754707     0.24791891
C      -4.99226826    -0.02870883     0.27095027
O      -5.45974393    -1.30166570     0.24848949
O      -5.72343584     0.92564993     0.30507427
H      -6.42824167    -1.24604778     0.26526157
H      -3.09486357    -0.53351326     1.10847417
H      -3.12278479    -0.49254413    -0.64905372
H      -3.15187494     1.03906895     0.26658847
16 
# or1: geometry number 15. C1-C9 distance: 3.4 
C       0.00000000     0.00000000     0.00000000
C       1.50168242     0.00000000     0.00000000
O       1.99935599     1.26165692     0.00000000
O       2.21003263    -0.97201393     0.00007509
H       2.96637189     1.18264569     0.00005633
H      -0.36991305     0.52964945     0.87921567
H      -0.36994768     0.52996114    -0.87901136
H      -0.36380470    -1.02331507    -0.00015940
C      -3.39145168     0.00733144     0.24083552
C      -4.89251968    -0.02892446     0.26386688
O      -5.35999535    -1.30188133     0.24140610
O      -5.62368726     0.92543430     0.29799088
H      -6.32849309    -1.24626341     0.25817818
H      -2.99511499    -0.53372889     1.10139078
H      -3.02303621    -0.49275976    -0.65613711
H      -3.05212636     1.03885332     0.25950508
16 
# or1: geometry number 16. C1-C9 distance: 3.3 
C       0.00000000     0.00000000     0.00000000
C       1.50168242     0.00000000     0.00000000
O       1.99935599     1.26165692     0.00000000
O       2.21003263    -0.97201393     0.00007509
H       2.96637189     1.18264569     0.00005633
H      -0.36991305     0.52964945     0.87921567
H      -0.36994768     0.52996114    -0.87901136
H      -0.36380470    -1.02331507    -0.00015940
C      -3.29170310     0.00711581     0.23375212
C      -4.79277110    -0.02914009     0.25678348
O      -5.26024677    -1.30209696     0.23432270
O      -5.52393868     0.92521867     0.29090748
H      -6.22874451    -1.24647904     0.25109478
H      -2.89536641    -0.53394452     1.09430738
H      -2.92328763    -0.49297539    -0.66322051
H      -2.95237778     1.03863769     0.25242168
16 
# or1: geometry number 17. C1-C9 distance: 3.2 
C       0.00000000     0.00000000     0.00000000
C       1.50168242     0.00000000     0.00000000
O       1.99935599     1.26165692     0.00000000
O       2.21003263    -0.97201393     0.00007509
H       2.96637189     1.18264569     0.00005633
H      -0.36991305     0.52964945     0.87921567
H      -0.36994768     0.52996114    -0.87901136
H      -0.36380470    -1.02331507    -0.00015940
C      -3.19195452     0.00690018     0.22666872
C      -4.69302252    -0.02935572     0.24970008
O      -5.16049819    -1.30231259     0.22723930
O      -5.42419010     0.92500304     0.28382408
H      -6.12899593    -1.24669467     0.24401138
H      -2.79561783    -0.53416015     1.08722398
H      -2.82353905    -0.49319102    -0.67030391
H      -2.85262920     1.03842206     0.24533828
16 
# or1: geometry number 18. C1-C9 distance: 3.1 
C       0.00000000     0.00000000     0.00000000
C       1.50168242     0.00000000     0.00000000
O       1.99935599     1.26165692     0.00000000
O       2.21003263    -0.97201393     0.00007509
H       2.96637189     1.18264569     0.00005633
H      -0.36991305     0.52964945     0.87921567
H      -0.36994768     0.52996114    -0.87901136
H      -0.36380470    -1.02331507    -0.00015940
C      -3.09220594     0.00668455     0.21958532
C      -4.59327394    -0.02957135     0.24261668
O      -5.06074961    -1.30252822     0.22015590
O      -5.32444152     0.92478741     0.27674068
H      -6.02924735    -1.24691030     0.23692798
H      -2.69586925    -0.53437578     1.08014058
H      -2.72379047    -0.49340665    -0.67738731
H      -2.75288062     1.03820643     0.23825488
16 
# or1: geometry number 19. C1-C9 distance: 3 
C       0.00000000     0.00000000     0.00000000
C       1.50168242     0.00000000     0.00000000
O       1.99935599     1.26165692     0.00000000
O       2.21003263    -0.97201393     0.00007509
H       2.96637189     1.18264569     0.00005633
H      -0.36991305     0.52964945     0.87921567
H      -0.36994768     0.52996114    -0.87901136
H      -0.36380470    -1.02331507    -0.00015940
C      -2.99245737     0.00646892     0.21250193
C      -4.49352537    -0.02978698     0.23553329
O      -4.96100104    -1.30274385     0.21307251
O      -5.22469295     0.92457178     0.26965729
H      -5.92949878    -1.24712593     0.22984459
H      -2.59612068    -0.53459141     1.07305719
H      -2.62404190    -0.49362228    -0.68447070
H      -2.65313205     1.03799080     0.23117149
16 
# or1: geometry number 20. C1-C9 distance: 2.95 
C       0.00000000     0.00000000     0.00000000
C       1.50168242     0.00000000     0.00000000
O       1.99935599     1.26165692     0.00000000
O       2.21003263    -0.97201393     0.00007509
H       2.96637189     1.18264569     0.00005633
H      -0.36991305     0.52964945     0.87921567
H      -0.36994768     0.52996114    -0.87901136
H      -0.36380470    -1.02331507    -0.00015940
C      -2.94258308     0.00636110     0.20896023
C      -4.44365108    -0.02989480     0.23199159
O      -4.91112675    -1.30285167     0.20953081
O      -5.17481866     0.92446396     0.26611559
H      -5.87962449    -1.24723375     0.22630289
H      -2.54624639    -0.53469923     1.06951549
H      -2.57416761    -0.49373010    -0.68801240
H      -2.60325776     1.03788298     0.22762979
16 
# or1: geometry number 21. C1-C9 distance: 2.9 
C       0.00000000     0.00000000     0.00000000
C       1.50168242     0.00000000     0.00000000
O       1.99935599     1.26165692     0.00000000
O       2.21003263    -0.97201393     0.00007509
H       2.96637189     1.18264569     0.00005633
H      -0.36991305     0.52964945     0.87921567
H      -0.36994768     0.52996114    -0.87901136
H      -0.36380470    -1.02331507    -0.00015940
C      -2.89270879     0.00625329     0.20541853
C      -4.39377679    -0.03000261     0.22844989
O      -4.86125246    -1.30295948     0.20598911
O      -5.12494437     0.92435615     0.26257389
H      -5.82975020    -1.24734156     0.22276119
H      -2.49637210    -0.53480704     1.06597379
H      -2.52429332    -0.49383791    -0.69155410
H      -2.55338347     1.03777517     0.22408809
16 
# or1: geometry number 22. C1-C9 distance: 2.85 
C       0.00000000     0.00000000     0.00000000
C       1.50168242     0.00000000     0.00000000
O       1.99935599     1.26165692     0.00000000
O       2.21003263    -0.97201393     0.00007509
H       2.96637189     1.18264569     0.00005633
H      -0.36991305     0.52964945     0.87921567
H      -0.36994768     0.52996114    -0.87901136
H      -0.36380470    -1.02331507    -0.00015940
C      -2.84283450     0.00614547     0.20187683
C      -4.34390250    -0.03011043     0.22490819
O      -4.81137817    -1.30306730     0.20244741
O      -5.07507008     0.92424833     0.25903219
H      -5.77987591    -1.24744938     0.21921949
H      -2.44649781    -0.53491486     1.06243209
H      -2.47441903    -0.49394573    -0.69509580
H      -2.50350918     1.03766735     0.22054639
16 
# or1: geometry number 23. C1-C9 distance: 2.8 
C       0.00000000     0.00000000     0.00000000
C       1.50168242     0.00000000     0.00000000
O       1.99935599     1.26165692     0.00000000
O       2.21003263    -0.97201393     0.00007509
H       2.96637189     1.18264569     0.00005633
H      -0.36991305     0.52964945     0.87921567
H      -0.36994768     0.52996114    -0.87901136
H      -0.36380470    -1.02331507    -0.00015940
C      -2.79296021     0.00603765     0.19833513
C      -4.29402821    -0.03021825     0.22136649
O      -4.76150388    -1.30317512     0.19890571
O      -5.02519579     0.92414051     0.25549049
H      -5.73000162    -1.24755720     0.21567779
H      -2.39662352    -0.53502268     1.05889039
H      -2.42454474    -0.49405355    -0.69863750
H      -2.45363489     1.03755953     0.21700469
16 
# or1: geometry number 24. C1-C9 distance: 2.75 
C       0.00000000     0.00000000     0.00000000
C       1.50168242     0.00000000     0.00000000
O       1.99935599     1.26165692     0.00000000
O       2.21003263    -0.97201393     0.00007509
H       2.96637189     1.18264569     0.00005633
H      -0.36991305     0.52964945     0.87921567
H      -0.36994768     0.52996114    -0.87901136
H      -0.36380470    -1.02331507    -0.00015940
C      -2.74308592     0.00592984     0.19479343
C      -4.24415392    -0.03032606     0.21782479
O      -4.71162959    -1.30328293     0.19536401
O      -4.97532150     0.92403270     0.25194879
H      -5.68012733    -1.24766501     0.21213609
H      -2.34674923    -0.53513049     1.05534869
H      -2.37467045    -0.49416136    -0.70217920
H      -2.40376060     1.03745172     0.21346299
16 
# or1: geometry number 25. C1-C9 distance: 2.7 
C       0.00000000     0.00000000     0.00000000
C       1.50168242     0.00000000     0.00000000
O       1.99935599     1.26165692     0.00000000
O       2.21003263    -0.97201393     0.00007509
H       2.96637189     1.18264569     0.00005633
H      -0.36991305     0.52964945     0.87921567
H      -0.36994768     0.52996114    -0.87901136
H      -0.36380470    -1.02331507    -0.00015940
C      -2.69321163     0.00582202     0.19125173
C      -4.19427963    -0.03043388     0.21428309
O      -4.66175530    -1.30339075     0.19182231
O      -4.92544721     0.92392488     0.24840709
H      -5.63025304    -1.24777283     0.20859439
H      -2.29687494    -0.53523831     1.05180699
H      -2.32479616    -0.49426918    -0.70572090
H      -2.35388631     1.03734390     0.20992129
16 
# or1: geometry number 26. C1-C9 distance: 2.65 
C       0.00000000     0.00000000     0.00000000
C       1.50168242     0.00000000     0.00000000
O       1.99935599     1.26165692     0.00000000
O       2.21003263    -0.97201393     0.00007509
H       2.96637189     1.18264569     0.00005633
H      -0.36991305     0.52964945     0.87921567
H      -0.36994768     0.52996114    -0.87901136
H      -0.36380470    -1.02331507    -0.00015940
C      -2.64333734     0.00571421     0.18771003
C      -4.14440534    -0.03054169     0.21074139
O      -4.61188101    -1.30349856     0.18828061
O      -4.87557292     0.92381707     0.24486539
H      -5.58037875    -1.24788064     0.20505269
H      -2.24700065    -0.53534612     1.04826529
H      -2.27492187    -0.49437699    -0.70926260
H      -2.30401202     1.03723609     0.20637959
16 
# or1: geometry number 27. C1-C9 distance: 2.6 
C       0.00000000     0.00000000     0.00000000
C       1.50168242     0.00000000     0.00000000
O       1.99935599     1.26165692     0.00000000
O       2.21003263    -0.97201393     0.00007509
H       2.96637189     1.18264569     0.00005633
H      -0.36991305     0.52964945     0.87921567
H      -0.36994768     0.52996114    -0.87901136
H      -0.36380470    -1.02331507    -0.00015940
C      -2.59346305     0.00560639     0.18416834
C      -4.09453105    -0.03064951     0.20719970
O      -4.56200672    -1.30360638     0.18473892
O      -4.82569863     0.92370925     0.24132370
H      -5.53050446    -1.24798846     0.20151100
H      -2.19712636    -0.53545394     1.04472360
H      -2.22504758    -0.49448481    -0.71280429
H      -2.25413773     1.03712827     0.20283790
16 
# or1: geometry number 28. C1-C9 distance: 2.55 
C       0.00000000     0.00000000     0.00000000
C       1.50168242     0.00000000     0.00000000
O       1.99935599     1.26165692     0.00000000
O       2.21003263    -0.97201393     0.00007509
H       2.96637189     1.18264569     0.00005633
H      -0.36991305     0.52964945     0.87921567
H      -0.36994768     0.52996114    -0.87901136
H      -0.36380470    -1.02331507    -0.00015940
C      -2.54358876     0.00549858     0.18062664
C      -4.04465676    -0.03075732     0.20365800
O      -4.51213243    -1.30371419     0.18119722
O      -4.77582434     0.92360144     0.23778200
H      -5.48063017    -1.24809627     0.19796930
H      -2.14725207    -0.53556175     1.04118190
H      -2.17517329    -0.49459262    -0.71634599
H      -2.20426344     1.03702046     0.19929620
16 
# or1: geometry number 29. C1-C9 distance: 2.5 
C       0.00000000     0.00000000     0.00000000
C       1.50168242     0.00000000     0.00000000
O       1.99935599     1.26165692     0.00000000
O       2.21003263    -0.97201393     0.00007509
H       2.96637189     1.18264569     0.00005633
H      -0.36991305     0.52964945     0.87921567
H      -0.36994768     0.52996114    -0.87901136
H      -0.36380470    -1.02331507    -0.00015940
C      -2.49371447     0.00539076     0.17708494
C      -3.99478247    -0.03086514     0.20011630
O      -4.46225814    -1.30382201     0.17765552
O      -4.72595005     0.92349362     0.23424030
H      -5.43075588    -1.24820409     0.19442760
H      -2.09737778    -0.53566957     1.03764020
H      -2.12529900    -0.49470044    -0.71988769
H      -2.15438915     1.03691264     0.19575450
16 
# or1: geometry number 30. C1-C9 distance: 2.45 
C       0.00000000     0.00000000     0.00000000
C       1.50168242     0.00000000     0.00000000
O       1.99935599     1.26165692     0.00000000
O       2.21003263    -0.97201393     0.00007509
H       2.96637189     1.18264569     0.00005633
H      -0.36991305     0.52964945     0.87921567
H      -0.36994768     0.52996114    -0.87901136
H      -0.36380470    -1.02331507    -0.00015940
C      -2.44384018     0.00528295     0.17354324
C      -3.94490818    -0.03097295     0.19657460
O      -4.41238385    -1.30392982     0.17411382
O      -4.67607576     0.92338581     0.23069860
H      -5.38088159    -1.24831190     0.19088590
H      -2.04750349    -0.53577738     1.03409850
H      -2.07542471    -0.49480825    -0.72342939
H      -2.10451486     1.03680483     0.19221280
16 
# or1: geometry number 31. C1-C9 distance: 2.4 
C       0.00000000     0.00000000     0.00000000
C       1.50168242     0.00000000     0.00000000
O       1.99935599     1.26165692     0.00000000
O       2.21003263    -0.97201393     0.00007509
H       2.96637189     1.18264569     0.00005633
H      -0.36991305     0.52964945     0.87921567
H      -0.36994768     0.52996114    -0.87901136
H      -0.36380470    -1.02331507    -0.00015940
C      -2.39396589     0.00517513     0.17000154
C      -3.89503389    -0.03108077     0.19303290
O      -4.36250956    -1.30403764     0.17057212
O      -4.62620147     0.92327799     0.22715690
H      -5.33100730    -1.24841972     0.18734420
H      -1.99762920    -0.53588520     1.03055680
H      -2.02555042    -0.49491607    -0.72697109
H      -2.05464057     1.03669701     0.18867110
