16 
# or21: geometry number 1. H6-H14 distance: 10 
C       0.00000000     0.00000000     0.00000000
C       1.50168242     0.00000000     0.00000000
O       1.99935599     1.26165692     0.00000000
O       2.21003263    -0.97201393     0.00007509
H       2.96637189     1.18264569     0.00005633
H      -0.36991305     0.52964945     0.87921567
H      -0.36994768     0.52996114    -0.87901136
H      -0.36380470    -1.02331507    -0.00015940
C      -3.57192481     5.71156820    10.14777387
C      -5.06825895     5.83615109    10.17043092
O      -5.52661705     6.52514509     9.09588343
O      -5.80301640     5.39584344    11.01472457
H      -6.49254447     6.56476019     9.17820833
H      -3.25693684     5.20181301     9.23600820
H      -3.11817247     6.70374833    10.13949983
H      -3.23985391     5.15617567    11.02000990
16 
# or21: geometry number 2. H6-H14 distance: 8 
C       0.00000000     0.00000000     0.00000000
C       1.50168242     0.00000000     0.00000000
O       1.99935599     1.26165692     0.00000000
O       2.21003263    -0.97201393     0.00007509
H       2.96637189     1.18264569     0.00005633
H      -0.36991305     0.52964945     0.87921567
H      -0.36994768     0.52996114    -0.87901136
H      -0.36380470    -1.02331507    -0.00015940
C      -2.99452005     4.77713548     8.47641536
C      -4.49085419     4.90171837     8.49907241
O      -4.94921229     5.59071237     7.42452492
O      -5.22561164     4.46141072     9.34336606
H      -5.91513971     5.63032747     7.50684982
H      -2.67953208     4.26738029     7.56464969
H      -2.54076771     5.76931561     8.46814132
H      -2.66244915     4.22174295     9.34865139
16 
# or21: geometry number 3. H6-H14 distance: 6 
C       0.00000000     0.00000000     0.00000000
C       1.50168242     0.00000000     0.00000000
O       1.99935599     1.26165692     0.00000000
O       2.21003263    -0.97201393     0.00007509
H       2.96637189     1.18264569     0.00005633
H      -0.36991305     0.52964945     0.87921567
H      -0.36994768     0.52996114    -0.87901136
H      -0.36380470    -1.02331507    -0.00015940
C      -2.41711529     3.84270277     6.80505686
C      -3.91344943     3.96728566     6.82771391
O      -4.37180753     4.65627966     5.75316642
O      -4.64820688     3.52697801     7.67200756
H      -5.33773495     4.69589476     5.83549132
H      -2.10212732     3.33294758     5.89329119
H      -1.96336295     4.83488290     6.79678282
H      -2.08504439     3.28731024     7.67729289
16 
# or21: geometry number 4. H6-H14 distance: 5 
C       0.00000000     0.00000000     0.00000000
C       1.50168242     0.00000000     0.00000000
O       1.99935599     1.26165692     0.00000000
O       2.21003263    -0.97201393     0.00007509
H       2.96637189     1.18264569     0.00005633
H      -0.36991305     0.52964945     0.87921567
H      -0.36994768     0.52996114    -0.87901136
H      -0.36380470    -1.02331507    -0.00015940
C      -2.12841291     3.37548642     5.96937760
C      -3.62474705     3.50006931     5.99203465
O      -4.08310515     4.18906331     4.91748716
O      -4.35950450     3.05976166     6.83632830
H      -5.04903257     4.22867841     4.99981206
H      -1.81342494     2.86573123     5.05761193
H      -1.67466057     4.36766655     5.96110356
H      -1.79634201     2.82009389     6.84161363
16 
# or21: geometry number 5. H6-H14 distance: 4.5 
C       0.00000000     0.00000000     0.00000000
C       1.50168242     0.00000000     0.00000000
O       1.99935599     1.26165692     0.00000000
O       2.21003263    -0.97201393     0.00007509
H       2.96637189     1.18264569     0.00005633
H      -0.36991305     0.52964945     0.87921567
H      -0.36994768     0.52996114    -0.87901136
H      -0.36380470    -1.02331507    -0.00015940
C      -1.98406172     3.14187824     5.55153798
C      -3.48039586     3.26646113     5.57419503
O      -3.93875396     3.95545513     4.49964754
O      -4.21515331     2.82615348     6.41848868
H      -4.90468138     3.99507023     4.58197244
H      -1.66907375     2.63212305     4.63977231
H      -1.53030938     4.13405837     5.54326394
H      -1.65199082     2.58648571     6.42377401
16 
# or21: geometry number 6. H6-H14 distance: 4 
C       0.00000000     0.00000000     0.00000000
C       1.50168242     0.00000000     0.00000000
O       1.99935599     1.26165692     0.00000000
O       2.21003263    -0.97201393     0.00007509
H       2.96637189     1.18264569     0.00005633
H      -0.36991305     0.52964945     0.87921567
H      -0.36994768     0.52996114    -0.87901136
H      -0.36380470    -1.02331507    -0.00015940
C      -1.83971054     2.90827006     5.13369835
C      -3.33604468     3.03285295     5.15635540
O      -3.79440278     3.72184695     4.08180791
O      -4.07080213     2.59254530     6.00064905
H      -4.76033020     3.76146205     4.16413281
H      -1.52472257     2.39851487     4.22193268
H      -1.38595820     3.90045019     5.12542431
H      -1.50763964     2.35287753     6.00593438
16 
# or21: geometry number 7. H6-H14 distance: 3.7 
C       0.00000000     0.00000000     0.00000000
C       1.50168242     0.00000000     0.00000000
O       1.99935599     1.26165692     0.00000000
O       2.21003263    -0.97201393     0.00007509
H       2.96637189     1.18264569     0.00005633
H      -0.36991305     0.52964945     0.87921567
H      -0.36994768     0.52996114    -0.87901136
H      -0.36380470    -1.02331507    -0.00015940
C      -1.75309982     2.76810516     4.88299458
C      -3.24943396     2.89268805     4.90565163
O      -3.70779206     3.58168205     3.83110414
O      -3.98419141     2.45238040     5.74994528
H      -4.67371948     3.62129715     3.91342904
H      -1.43811185     2.25834997     3.97122891
H      -1.29934748     3.76028529     4.87472054
H      -1.42102892     2.21271263     5.75523061
16 
# or21: geometry number 8. H6-H14 distance: 3.4 
C       0.00000000     0.00000000     0.00000000
C       1.50168242     0.00000000     0.00000000
O       1.99935599     1.26165692     0.00000000
O       2.21003263    -0.97201393     0.00007509
H       2.96637189     1.18264569     0.00005633
H      -0.36991305     0.52964945     0.87921567
H      -0.36994768     0.52996114    -0.87901136
H      -0.36380470    -1.02331507    -0.00015940
C      -1.66648911     2.62794025     4.63229080
C      -3.16282325     2.75252314     4.65494785
O      -3.62118135     3.44151714     3.58040036
O      -3.89758070     2.31221549     5.49924150
H      -4.58710877     3.48113224     3.66272526
H      -1.35150114     2.11818506     3.72052513
H      -1.21273677     3.62012038     4.62401676
H      -1.33441821     2.07254772     5.50452683
16 
# or21: geometry number 9. H6-H14 distance: 3.1 
C       0.00000000     0.00000000     0.00000000
C       1.50168242     0.00000000     0.00000000
O       1.99935599     1.26165692     0.00000000
O       2.21003263    -0.97201393     0.00007509
H       2.96637189     1.18264569     0.00005633
H      -0.36991305     0.52964945     0.87921567
H      -0.36994768     0.52996114    -0.87901136
H      -0.36380470    -1.02331507    -0.00015940
C      -1.57987839     2.48777534     4.38158702
C      -3.07621253     2.61235823     4.40424407
O      -3.53457063     3.30135223     3.32969658
O      -3.81096998     2.17205058     5.24853772
H      -4.50049805     3.34096733     3.41202148
H      -1.26489042     1.97802015     3.46982135
H      -1.12612605     3.47995547     4.37331298
H      -1.24780749     1.93238281     5.25382305
16 
# or21: geometry number 10. H6-H14 distance: 2.9 
C       0.00000000     0.00000000     0.00000000
C       1.50168242     0.00000000     0.00000000
O       1.99935599     1.26165692     0.00000000
O       2.21003263    -0.97201393     0.00007509
H       2.96637189     1.18264569     0.00005633
H      -0.36991305     0.52964945     0.87921567
H      -0.36994768     0.52996114    -0.87901136
H      -0.36380470    -1.02331507    -0.00015940
C      -1.52213792     2.39433207     4.21445117
C      -3.01847206     2.51891496     4.23710822
O      -3.47683016     3.20790896     3.16256073
O      -3.75322951     2.07860731     5.08140187
H      -4.44275758     3.24752406     3.24488563
H      -1.20714995     1.88457688     3.30268550
H      -1.06838558     3.38651220     4.20617713
H      -1.19006702     1.83893954     5.08668720
16 
# or21: geometry number 11. H6-H14 distance: 2.7 
C       0.00000000     0.00000000     0.00000000
C       1.50168242     0.00000000     0.00000000
O       1.99935599     1.26165692     0.00000000
O       2.21003263    -0.97201393     0.00007509
H       2.96637189     1.18264569     0.00005633
H      -0.36991305     0.52964945     0.87921567
H      -0.36994768     0.52996114    -0.87901136
H      -0.36380470    -1.02331507    -0.00015940
C      -1.46439744     2.30088880     4.04731532
C      -2.96073158     2.42547169     4.06997237
O      -3.41908968     3.11446569     2.99542488
O      -3.69548903     1.98516404     4.91426602
H      -4.38501710     3.15408079     3.07774978
H      -1.14940947     1.79113361     3.13554965
H      -1.01064510     3.29306893     4.03904128
H      -1.13232654     1.74549627     4.91955135
16 
# or21: geometry number 12. H6-H14 distance: 2.5 
C       0.00000000     0.00000000     0.00000000
C       1.50168242     0.00000000     0.00000000
O       1.99935599     1.26165692     0.00000000
O       2.21003263    -0.97201393     0.00007509
H       2.96637189     1.18264569     0.00005633
H      -0.36991305     0.52964945     0.87921567
H      -0.36994768     0.52996114    -0.87901136
H      -0.36380470    -1.02331507    -0.00015940
C      -1.40665697     2.20744553     3.88017947
C      -2.90299111     2.33202842     3.90283652
O      -3.36134921     3.02102242     2.82828903
O      -3.63774856     1.89172077     4.74713017
H      -4.32727663     3.06063752     2.91061393
H      -1.09166900     1.69769034     2.96841380
H      -0.95290463     3.19962566     3.87190543
H      -1.07458607     1.65205300     4.75241550
16 
# or21: geometry number 13. H6-H14 distance: 2.4 
C       0.00000000     0.00000000     0.00000000
C       1.50168242     0.00000000     0.00000000
O       1.99935599     1.26165692     0.00000000
O       2.21003263    -0.97201393     0.00007509
H       2.96637189     1.18264569     0.00005633
H      -0.36991305     0.52964945     0.87921567
H      -0.36994768     0.52996114    -0.87901136
H      -0.36380470    -1.02331507    -0.00015940
C      -1.37778673     2.16072389     3.79661155
C      -2.87412087     2.28530678     3.81926860
O      -3.33247897     2.97430078     2.74472111
O      -3.60887832     1.84499913     4.66356225
H      -4.29840639     3.01391588     2.82704601
H      -1.06279876     1.65096870     2.88484588
H      -0.92403439     3.15290402     3.78833751
H      -1.04571583     1.60533136     4.66884758
16 
# or21: geometry number 14. H6-H14 distance: 2.3 
C       0.00000000     0.00000000     0.00000000
C       1.50168242     0.00000000     0.00000000
O       1.99935599     1.26165692     0.00000000
O       2.21003263    -0.97201393     0.00007509
H       2.96637189     1.18264569     0.00005633
H      -0.36991305     0.52964945     0.87921567
H      -0.36994768     0.52996114    -0.87901136
H      -0.36380470    -1.02331507    -0.00015940
C      -1.34891649     2.11400226     3.71304362
C      -2.84525063     2.23858515     3.73570067
O      -3.30360873     2.92757915     2.66115318
O      -3.58000808     1.79827750     4.57999432
H      -4.26953615     2.96719425     2.74347808
H      -1.03392852     1.60424707     2.80127795
H      -0.89516415     3.10618239     3.70476958
H      -1.01684559     1.55860973     4.58527965
16 
# or21: geometry number 15. H6-H14 distance: 2.2 
C       0.00000000     0.00000000     0.00000000
C       1.50168242     0.00000000     0.00000000
O       1.99935599     1.26165692     0.00000000
O       2.21003263    -0.97201393     0.00007509
H       2.96637189     1.18264569     0.00005633
H      -0.36991305     0.52964945     0.87921567
H      -0.36994768     0.52996114    -0.87901136
H      -0.36380470    -1.02331507    -0.00015940
C      -1.32004625     2.06728062     3.62947570
C      -2.81638039     2.19186351     3.65213275
O      -3.27473849     2.88085751     2.57758526
O      -3.55113784     1.75155586     4.49642640
H      -4.24066591     2.92047261     2.65991016
H      -1.00505828     1.55752543     2.71771003
H      -0.86629391     3.05946075     3.62120166
H      -0.98797535     1.51188809     4.50171173
16 
# or21: geometry number 16. H6-H14 distance: 2.1 
C       0.00000000     0.00000000     0.00000000
C       1.50168242     0.00000000     0.00000000
O       1.99935599     1.26165692     0.00000000
O       2.21003263    -0.97201393     0.00007509
H       2.96637189     1.18264569     0.00005633
H      -0.36991305     0.52964945     0.87921567
H      -0.36994768     0.52996114    -0.87901136
H      -0.36380470    -1.02331507    -0.00015940
C      -1.29117602     2.02055899     3.54590777
C      -2.78751016     2.14514188     3.56856482
O      -3.24586826     2.83413588     2.49401733
O      -3.52226761     1.70483423     4.41285847
H      -4.21179568     2.87375098     2.57634223
H      -0.97618805     1.51080380     2.63414210
H      -0.83742368     3.01273912     3.53763373
H      -0.95910512     1.46516646     4.41814380
16 
# or21: geometry number 17. H6-H14 distance: 2.0 
C       0.00000000     0.00000000     0.00000000
C       1.50168242     0.00000000     0.00000000
O       1.99935599     1.26165692     0.00000000
O       2.21003263    -0.97201393     0.00007509
H       2.96637189     1.18264569     0.00005633
H      -0.36991305     0.52964945     0.87921567
H      -0.36994768     0.52996114    -0.87901136
H      -0.36380470    -1.02331507    -0.00015940
C      -1.26230578     1.97383735     3.46233985
C      -2.75863992     2.09842024     3.48499690
O      -3.21699802     2.78741424     2.41044941
O      -3.49339737     1.65811259     4.32929055
H      -4.18292544     2.82702934     2.49277431
H      -0.94731781     1.46408216     2.55057418
H      -0.80855344     2.96601748     3.45406581
H      -0.93023488     1.41844482     4.33457588
16 
# or21: geometry number 18. H6-H14 distance: 1.9 
C       0.00000000     0.00000000     0.00000000
C       1.50168242     0.00000000     0.00000000
O       1.99935599     1.26165692     0.00000000
O       2.21003263    -0.97201393     0.00007509
H       2.96637189     1.18264569     0.00005633
H      -0.36991305     0.52964945     0.87921567
H      -0.36994768     0.52996114    -0.87901136
H      -0.36380470    -1.02331507    -0.00015940
C      -1.23343554     1.92711572     3.37877192
C      -2.72976968     2.05169861     3.40142897
O      -3.18812778     2.74069261     2.32688148
O      -3.46452713     1.61139096     4.24572262
H      -4.15405520     2.78030771     2.40920638
H      -0.91844757     1.41736053     2.46700625
H      -0.77968320     2.91929585     3.37049788
H      -0.90136464     1.37172319     4.25100795
16 
# or21: geometry number 19. H6-H14 distance: 1.8 
C       0.00000000     0.00000000     0.00000000
C       1.50168242     0.00000000     0.00000000
O       1.99935599     1.26165692     0.00000000
O       2.21003263    -0.97201393     0.00007509
H       2.96637189     1.18264569     0.00005633
H      -0.36991305     0.52964945     0.87921567
H      -0.36994768     0.52996114    -0.87901136
H      -0.36380470    -1.02331507    -0.00015940
C      -1.20456530     1.88039408     3.29520400
C      -2.70089944     2.00497697     3.31786105
O      -3.15925754     2.69397097     2.24331356
O      -3.43565689     1.56466932     4.16215470
H      -4.12518496     2.73358607     2.32563846
H      -0.88957733     1.37063889     2.38343833
H      -0.75081296     2.87257421     3.28692996
H      -0.87249440     1.32500155     4.16744003
16 
# or21: geometry number 20. H6-H14 distance: 1.7 
C       0.00000000     0.00000000     0.00000000
C       1.50168242     0.00000000     0.00000000
O       1.99935599     1.26165692     0.00000000
O       2.21003263    -0.97201393     0.00007509
H       2.96637189     1.18264569     0.00005633
H      -0.36991305     0.52964945     0.87921567
H      -0.36994768     0.52996114    -0.87901136
H      -0.36380470    -1.02331507    -0.00015940
C      -1.17569506     1.83367244     3.21163607
C      -2.67202920     1.95825533     3.23429312
O      -3.13038730     2.64724933     2.15974563
O      -3.40678665     1.51794768     4.07858677
H      -4.09631472     2.68686443     2.24207053
H      -0.86070709     1.32391725     2.29987040
H      -0.72194272     2.82585257     3.20336203
H      -0.84362416     1.27827991     4.08387210
16 
# or21: geometry number 21. H6-H14 distance: 1.6 
C       0.00000000     0.00000000     0.00000000
C       1.50168242     0.00000000     0.00000000
O       1.99935599     1.26165692     0.00000000
O       2.21003263    -0.97201393     0.00007509
H       2.96637189     1.18264569     0.00005633
H      -0.36991305     0.52964945     0.87921567
H      -0.36994768     0.52996114    -0.87901136
H      -0.36380470    -1.02331507    -0.00015940
C      -1.14682483     1.78695081     3.12806814
C      -2.64315897     1.91153370     3.15072519
O      -3.10151707     2.60052770     2.07617770
O      -3.37791642     1.47122605     3.99501884
H      -4.06744449     2.64014280     2.15850260
H      -0.83183686     1.27719562     2.21630247
H      -0.69307249     2.77913094     3.11979410
H      -0.81475393     1.23155828     4.00030417
16 
# or21: geometry number 22. H6-H14 distance: 1.5 
C       0.00000000     0.00000000     0.00000000
C       1.50168242     0.00000000     0.00000000
O       1.99935599     1.26165692     0.00000000
O       2.21003263    -0.97201393     0.00007509
H       2.96637189     1.18264569     0.00005633
H      -0.36991305     0.52964945     0.87921567
H      -0.36994768     0.52996114    -0.87901136
H      -0.36380470    -1.02331507    -0.00015940
C      -1.11795459     1.74022917     3.04450022
C      -2.61428873     1.86481206     3.06715727
O      -3.07264683     2.55380606     1.99260978
O      -3.34904618     1.42450441     3.91145092
H      -4.03857425     2.59342116     2.07493468
H      -0.80296662     1.23047398     2.13273455
H      -0.66420225     2.73240930     3.03622618
H      -0.78588369     1.18483664     3.91673625
16 
# or21: geometry number 23. H6-H14 distance: 1.4 
C       0.00000000     0.00000000     0.00000000
C       1.50168242     0.00000000     0.00000000
O       1.99935599     1.26165692     0.00000000
O       2.21003263    -0.97201393     0.00007509
H       2.96637189     1.18264569     0.00005633
H      -0.36991305     0.52964945     0.87921567
H      -0.36994768     0.52996114    -0.87901136
H      -0.36380470    -1.02331507    -0.00015940
C      -1.08908435     1.69350754     2.96093229
C      -2.58541849     1.81809043     2.98358934
O      -3.04377659     2.50708443     1.90904185
O      -3.32017594     1.37778278     3.82788299
H      -4.00970401     2.54669953     1.99136675
H      -0.77409638     1.18375235     2.04916662
H      -0.63533201     2.68568767     2.95265825
H      -0.75701345     1.13811501     3.83316832
16 
# or21: geometry number 24. H6-H14 distance: 1.35 
C       0.00000000     0.00000000     0.00000000
C       1.50168242     0.00000000     0.00000000
O       1.99935599     1.26165692     0.00000000
O       2.21003263    -0.97201393     0.00007509
H       2.96637189     1.18264569     0.00005633
H      -0.36991305     0.52964945     0.87921567
H      -0.36994768     0.52996114    -0.87901136
H      -0.36380470    -1.02331507    -0.00015940
C      -1.07464923     1.67014672     2.91914833
C      -2.57098337     1.79472961     2.94180538
O      -3.02934147     2.48372361     1.86725789
O      -3.30574082     1.35442196     3.78609903
H      -3.99526889     2.52333871     1.94958279
H      -0.75966126     1.16039153     2.00738266
H      -0.62089689     2.66232685     2.91087429
H      -0.74257833     1.11475419     3.79138436
16 
# or21: geometry number 25. H6-H14 distance: 1.3 
C       0.00000000     0.00000000     0.00000000
C       1.50168242     0.00000000     0.00000000
O       1.99935599     1.26165692     0.00000000
O       2.21003263    -0.97201393     0.00007509
H       2.96637189     1.18264569     0.00005633
H      -0.36991305     0.52964945     0.87921567
H      -0.36994768     0.52996114    -0.87901136
H      -0.36380470    -1.02331507    -0.00015940
C      -1.06021411     1.64678590     2.87736437
C      -2.55654825     1.77136879     2.90002142
O      -3.01490635     2.46036279     1.82547393
O      -3.29130570     1.33106114     3.74431507
H      -3.98083377     2.49997789     1.90779883
H      -0.74522614     1.13703071     1.96559870
H      -0.60646177     2.63896603     2.86909033
H      -0.72814321     1.09139337     3.74960040
16 
# or21: geometry number 26. H6-H14 distance: 1.25 
C       0.00000000     0.00000000     0.00000000
C       1.50168242     0.00000000     0.00000000
O       1.99935599     1.26165692     0.00000000
O       2.21003263    -0.97201393     0.00007509
H       2.96637189     1.18264569     0.00005633
H      -0.36991305     0.52964945     0.87921567
H      -0.36994768     0.52996114    -0.87901136
H      -0.36380470    -1.02331507    -0.00015940
C      -1.04577899     1.62342508     2.83558041
C      -2.54211313     1.74800797     2.85823746
O      -3.00047123     2.43700197     1.78368997
O      -3.27687058     1.30770032     3.70253111
H      -3.96639865     2.47661707     1.86601487
H      -0.73079102     1.11366989     1.92381474
H      -0.59202665     2.61560521     2.82730637
H      -0.71370809     1.06803255     3.70781644
16 
# or21: geometry number 27. H6-H14 distance: 1.2 
C       0.00000000     0.00000000     0.00000000
C       1.50168242     0.00000000     0.00000000
O       1.99935599     1.26165692     0.00000000
O       2.21003263    -0.97201393     0.00007509
H       2.96637189     1.18264569     0.00005633
H      -0.36991305     0.52964945     0.87921567
H      -0.36994768     0.52996114    -0.87901136
H      -0.36380470    -1.02331507    -0.00015940
C      -1.03134387     1.60006427     2.79379644
C      -2.52767801     1.72464716     2.81645349
O      -2.98603611     2.41364116     1.74190600
O      -3.26243546     1.28433951     3.66074714
H      -3.95196353     2.45325626     1.82423090
H      -0.71635590     1.09030908     1.88203077
H      -0.57759153     2.59224440     2.78552240
H      -0.69927297     1.04467174     3.66603247
16 
# or21: geometry number 28. H6-H14 distance: 1.15 
C       0.00000000     0.00000000     0.00000000
C       1.50168242     0.00000000     0.00000000
O       1.99935599     1.26165692     0.00000000
O       2.21003263    -0.97201393     0.00007509
H       2.96637189     1.18264569     0.00005633
H      -0.36991305     0.52964945     0.87921567
H      -0.36994768     0.52996114    -0.87901136
H      -0.36380470    -1.02331507    -0.00015940
C      -1.01690876     1.57670345     2.75201248
C      -2.51324290     1.70128634     2.77466953
O      -2.97160100     2.39028034     1.70012204
O      -3.24800035     1.26097869     3.61896318
H      -3.93752842     2.42989544     1.78244694
H      -0.70192079     1.06694826     1.84024681
H      -0.56315642     2.56888358     2.74373844
H      -0.68483786     1.02131092     3.62424851
16 
# or21: geometry number 29. H6-H14 distance: 1.1 
C       0.00000000     0.00000000     0.00000000
C       1.50168242     0.00000000     0.00000000
O       1.99935599     1.26165692     0.00000000
O       2.21003263    -0.97201393     0.00007509
H       2.96637189     1.18264569     0.00005633
H      -0.36991305     0.52964945     0.87921567
H      -0.36994768     0.52996114    -0.87901136
H      -0.36380470    -1.02331507    -0.00015940
C      -1.00247364     1.55334263     2.71022852
C      -2.49880778     1.67792552     2.73288557
O      -2.95716588     2.36691952     1.65833808
O      -3.23356523     1.23761787     3.57717922
H      -3.92309330     2.40653462     1.74066298
H      -0.68748567     1.04358744     1.79846285
H      -0.54872130     2.54552276     2.70195448
H      -0.67040274     0.99795010     3.58246455
16 
# or21: geometry number 30. H6-H14 distance: 1.05 
C       0.00000000     0.00000000     0.00000000
C       1.50168242     0.00000000     0.00000000
O       1.99935599     1.26165692     0.00000000
O       2.21003263    -0.97201393     0.00007509
H       2.96637189     1.18264569     0.00005633
H      -0.36991305     0.52964945     0.87921567
H      -0.36994768     0.52996114    -0.87901136
H      -0.36380470    -1.02331507    -0.00015940
C      -0.98803852     1.52998181     2.66844456
C      -2.48437266     1.65456470     2.69110161
O      -2.94273076     2.34355870     1.61655412
O      -3.21913011     1.21425705     3.53539526
H      -3.90865818     2.38317380     1.69887902
H      -0.67305055     1.02022662     1.75667889
H      -0.53428618     2.52216194     2.66017052
H      -0.65596762     0.97458928     3.54068059
16 
# or21: geometry number 31. H6-H14 distance: 1.0 
C       0.00000000     0.00000000     0.00000000
C       1.50168242     0.00000000     0.00000000
O       1.99935599     1.26165692     0.00000000
O       2.21003263    -0.97201393     0.00007509
H       2.96637189     1.18264569     0.00005633
H      -0.36991305     0.52964945     0.87921567
H      -0.36994768     0.52996114    -0.87901136
H      -0.36380470    -1.02331507    -0.00015940
C      -0.97360340     1.50662100     2.62666059
C      -2.46993754     1.63120389     2.64931764
O      -2.92829564     2.32019789     1.57477015
O      -3.20469499     1.19089624     3.49361129
H      -3.89422306     2.35981299     1.65709505
H      -0.65861543     0.99686581     1.71489492
H      -0.51985106     2.49880113     2.61838655
H      -0.64153250     0.95122847     3.49889662
