16 
# or7: geometry number 1. C2-C10 distance: 10 
C       0.00000000     0.00000000     0.00000000
C       1.50168242     0.00000000     0.00000000
O       1.99935599     1.26165692     0.00000000
O       2.21003263    -0.97201393     0.00007509
H       2.96637189     1.18264569     0.00005633
H      -0.36991305     0.52964945     0.87921567
H      -0.36994768     0.52996114    -0.87901136
H      -0.36380470    -1.02331507    -0.00015940
C       2.94718958     0.30727684    10.07075596
C       1.44894037     0.37240430     9.99292416
O       0.90495823    -0.85947102     9.83160512
O       0.77875934     1.36881553    10.06069699
H      -0.05687868    -0.73903994     9.79002811
H       3.24696932    -0.32748822    10.90597439
H       3.34571948    -0.14279282     9.16026583
H       3.34865469     1.30818156    10.19937613
16 
# or7: geometry number 2. C2-C10 distance: 9 
C       0.00000000     0.00000000     0.00000000
C       1.50168242     0.00000000     0.00000000
O       1.99935599     1.26165692     0.00000000
O       2.21003263    -0.97201393     0.00007509
H       2.96637189     1.18264569     0.00005633
H      -0.36991305     0.52964945     0.87921567
H      -0.36994768     0.52996114    -0.87901136
H      -0.36380470    -1.02331507    -0.00015940
C       2.95246378     0.27003641     9.07146355
C       1.45421457     0.33516387     8.99363175
O       0.91023243    -0.89671145     8.83231271
O       0.78403354     1.33157510     9.06140458
H      -0.05160448    -0.77628037     8.79073570
H       3.25224352    -0.36472865     9.90668198
H       3.35099368    -0.18003325     8.16097342
H       3.35392889     1.27094113     9.20008372
16 
# or7: geometry number 3. C2-C10 distance: 8 
C       0.00000000     0.00000000     0.00000000
C       1.50168242     0.00000000     0.00000000
O       1.99935599     1.26165692     0.00000000
O       2.21003263    -0.97201393     0.00007509
H       2.96637189     1.18264569     0.00005633
H      -0.36991305     0.52964945     0.87921567
H      -0.36994768     0.52996114    -0.87901136
H      -0.36380470    -1.02331507    -0.00015940
C       2.95773799     0.23279598     8.07217113
C       1.45948878     0.29792344     7.99433933
O       0.91550664    -0.93395188     7.83302029
O       0.78930775     1.29433467     8.06211216
H      -0.04633027    -0.81352080     7.79144328
H       3.25751773    -0.40196908     8.90738956
H       3.35626789    -0.21727368     7.16168100
H       3.35920310     1.23370070     8.20079130
16 
# or7: geometry number 4. C2-C10 distance: 7 
C       0.00000000     0.00000000     0.00000000
C       1.50168242     0.00000000     0.00000000
O       1.99935599     1.26165692     0.00000000
O       2.21003263    -0.97201393     0.00007509
H       2.96637189     1.18264569     0.00005633
H      -0.36991305     0.52964945     0.87921567
H      -0.36994768     0.52996114    -0.87901136
H      -0.36380470    -1.02331507    -0.00015940
C       2.96301219     0.19555555     7.07287871
C       1.46476298     0.26068301     6.99504691
O       0.92078084    -0.97119231     6.83372787
O       0.79458195     1.25709424     7.06281974
H      -0.04105607    -0.85076123     6.79215086
H       3.26279193    -0.43920951     7.90809714
H       3.36154209    -0.25451411     6.16238858
H       3.36447730     1.19646027     7.20149888
16 
# or7: geometry number 5. C2-C10 distance: 6 
C       0.00000000     0.00000000     0.00000000
C       1.50168242     0.00000000     0.00000000
O       1.99935599     1.26165692     0.00000000
O       2.21003263    -0.97201393     0.00007509
H       2.96637189     1.18264569     0.00005633
H      -0.36991305     0.52964945     0.87921567
H      -0.36994768     0.52996114    -0.87901136
H      -0.36380470    -1.02331507    -0.00015940
C       2.96828640     0.15831512     6.07358630
C       1.47003719     0.22344258     5.99575450
O       0.92605505    -1.00843274     5.83443546
O       0.79985616     1.21985381     6.06352733
H      -0.03578186    -0.88800166     5.79285845
H       3.26806614    -0.47644994     6.90880473
H       3.36681630    -0.29175454     5.16309617
H       3.36975151     1.15921984     6.20220647
16 
# or7: geometry number 6. C2-C10 distance: 5 
C       0.00000000     0.00000000     0.00000000
C       1.50168242     0.00000000     0.00000000
O       1.99935599     1.26165692     0.00000000
O       2.21003263    -0.97201393     0.00007509
H       2.96637189     1.18264569     0.00005633
H      -0.36991305     0.52964945     0.87921567
H      -0.36994768     0.52996114    -0.87901136
H      -0.36380470    -1.02331507    -0.00015940
C       2.97356060     0.12107469     5.07429388
C       1.47531139     0.18620215     4.99646208
O       0.93132925    -1.04567317     4.83514304
O       0.80513036     1.18261338     5.06423491
H      -0.03050766    -0.92524209     4.79356603
H       3.27334034    -0.51369037     5.90951231
H       3.37209050    -0.32899497     4.16380375
H       3.37502571     1.12197941     5.20291405
16 
# or7: geometry number 7. C2-C10 distance: 4.7 
C       0.00000000     0.00000000     0.00000000
C       1.50168242     0.00000000     0.00000000
O       1.99935599     1.26165692     0.00000000
O       2.21003263    -0.97201393     0.00007509
H       2.96637189     1.18264569     0.00005633
H      -0.36991305     0.52964945     0.87921567
H      -0.36994768     0.52996114    -0.87901136
H      -0.36380470    -1.02331507    -0.00015940
C       2.97514287     0.10990256     4.77450616
C       1.47689366     0.17503002     4.69667436
O       0.93291152    -1.05684530     4.53535532
O       0.80671263     1.17144125     4.76444719
H      -0.02892539    -0.93641422     4.49377831
H       3.27492261    -0.52486250     5.60972459
H       3.37367277    -0.34016710     3.86401603
H       3.37660798     1.11080728     4.90312633
16 
# or7: geometry number 8. C2-C10 distance: 4.4 
C       0.00000000     0.00000000     0.00000000
C       1.50168242     0.00000000     0.00000000
O       1.99935599     1.26165692     0.00000000
O       2.21003263    -0.97201393     0.00007509
H       2.96637189     1.18264569     0.00005633
H      -0.36991305     0.52964945     0.87921567
H      -0.36994768     0.52996114    -0.87901136
H      -0.36380470    -1.02331507    -0.00015940
C       2.97672513     0.09873043     4.47471843
C       1.47847592     0.16385789     4.39688663
O       0.93449378    -1.06801743     4.23556759
O       0.80829489     1.16026912     4.46465946
H      -0.02734313    -0.94758635     4.19399058
H       3.27650487    -0.53603463     5.30993686
H       3.37525503    -0.35133923     3.56422830
H       3.37819024     1.09963515     4.60333860
16 
# or7: geometry number 9. C2-C10 distance: 4.2 
C       0.00000000     0.00000000     0.00000000
C       1.50168242     0.00000000     0.00000000
O       1.99935599     1.26165692     0.00000000
O       2.21003263    -0.97201393     0.00007509
H       2.96637189     1.18264569     0.00005633
H      -0.36991305     0.52964945     0.87921567
H      -0.36994768     0.52996114    -0.87901136
H      -0.36380470    -1.02331507    -0.00015940
C       2.97777997     0.09128235     4.27485995
C       1.47953076     0.15640981     4.19702815
O       0.93554862    -1.07546551     4.03570911
O       0.80934973     1.15282104     4.26480098
H      -0.02628829    -0.95503443     3.99413210
H       3.27755971    -0.54348271     5.11007838
H       3.37630987    -0.35878731     3.36436982
H       3.37924508     1.09218707     4.40348012
16 
# or7: geometry number 10. C2-C10 distance: 4 
C       0.00000000     0.00000000     0.00000000
C       1.50168242     0.00000000     0.00000000
O       1.99935599     1.26165692     0.00000000
O       2.21003263    -0.97201393     0.00007509
H       2.96637189     1.18264569     0.00005633
H      -0.36991305     0.52964945     0.87921567
H      -0.36994768     0.52996114    -0.87901136
H      -0.36380470    -1.02331507    -0.00015940
C       2.97883481     0.08383426     4.07500146
C       1.48058560     0.14896172     3.99716966
O       0.93660346    -1.08291360     3.83585062
O       0.81040457     1.14537295     4.06494249
H      -0.02523345    -0.96248252     3.79427361
H       3.27861455    -0.55093080     4.91021989
H       3.37736471    -0.36623540     3.16451133
H       3.38029992     1.08473898     4.20362163
16 
# or7: geometry number 11. C2-C10 distance: 3.8 
C       0.00000000     0.00000000     0.00000000
C       1.50168242     0.00000000     0.00000000
O       1.99935599     1.26165692     0.00000000
O       2.21003263    -0.97201393     0.00007509
H       2.96637189     1.18264569     0.00005633
H      -0.36991305     0.52964945     0.87921567
H      -0.36994768     0.52996114    -0.87901136
H      -0.36380470    -1.02331507    -0.00015940
C       2.97988965     0.07638617     3.87514298
C       1.48164044     0.14151363     3.79731118
O       0.93765830    -1.09036169     3.63599214
O       0.81145941     1.13792486     3.86508401
H      -0.02417861    -0.96993061     3.59441513
H       3.27966939    -0.55837889     4.71036141
H       3.37841955    -0.37368349     2.96465285
H       3.38135476     1.07729089     4.00376315
16 
# or7: geometry number 12. C2-C10 distance: 3.7 
C       0.00000000     0.00000000     0.00000000
C       1.50168242     0.00000000     0.00000000
O       1.99935599     1.26165692     0.00000000
O       2.21003263    -0.97201393     0.00007509
H       2.96637189     1.18264569     0.00005633
H      -0.36991305     0.52964945     0.87921567
H      -0.36994768     0.52996114    -0.87901136
H      -0.36380470    -1.02331507    -0.00015940
C       2.98041707     0.07266213     3.77521374
C       1.48216786     0.13778959     3.69738194
O       0.93818572    -1.09408573     3.53606290
O       0.81198683     1.13420082     3.76515477
H      -0.02365119    -0.97365465     3.49448589
H       3.28019681    -0.56210293     4.61043217
H       3.37894697    -0.37740753     2.86472361
H       3.38188218     1.07356685     3.90383391
16 
# or7: geometry number 13. C2-C10 distance: 3.6 
C       0.00000000     0.00000000     0.00000000
C       1.50168242     0.00000000     0.00000000
O       1.99935599     1.26165692     0.00000000
O       2.21003263    -0.97201393     0.00007509
H       2.96637189     1.18264569     0.00005633
H      -0.36991305     0.52964945     0.87921567
H      -0.36994768     0.52996114    -0.87901136
H      -0.36380470    -1.02331507    -0.00015940
C       2.98094449     0.06893809     3.67528450
C       1.48269528     0.13406555     3.59745270
O       0.93871314    -1.09780977     3.43613366
O       0.81251425     1.13047678     3.66522553
H      -0.02312377    -0.97737869     3.39455665
H       3.28072423    -0.56582697     4.51050293
H       3.37947439    -0.38113157     2.76479437
H       3.38240960     1.06984281     3.80390467
16 
# or7: geometry number 14. C2-C10 distance: 3.5 
C       0.00000000     0.00000000     0.00000000
C       1.50168242     0.00000000     0.00000000
O       1.99935599     1.26165692     0.00000000
O       2.21003263    -0.97201393     0.00007509
H       2.96637189     1.18264569     0.00005633
H      -0.36991305     0.52964945     0.87921567
H      -0.36994768     0.52996114    -0.87901136
H      -0.36380470    -1.02331507    -0.00015940
C       2.98147191     0.06521405     3.57535526
C       1.48322270     0.13034151     3.49752346
O       0.93924056    -1.10153381     3.33620442
O       0.81304167     1.12675274     3.56529629
H      -0.02259635    -0.98110273     3.29462741
H       3.28125165    -0.56955101     4.41057369
H       3.38000181    -0.38485561     2.66486513
H       3.38293702     1.06611877     3.70397543
16 
# or7: geometry number 15. C2-C10 distance: 3.4 
C       0.00000000     0.00000000     0.00000000
C       1.50168242     0.00000000     0.00000000
O       1.99935599     1.26165692     0.00000000
O       2.21003263    -0.97201393     0.00007509
H       2.96637189     1.18264569     0.00005633
H      -0.36991305     0.52964945     0.87921567
H      -0.36994768     0.52996114    -0.87901136
H      -0.36380470    -1.02331507    -0.00015940
C       2.98199933     0.06149000     3.47542602
C       1.48375012     0.12661746     3.39759422
O       0.93976798    -1.10525786     3.23627518
O       0.81356909     1.12302869     3.46536705
H      -0.02206893    -0.98482678     3.19469817
H       3.28177907    -0.57327506     4.31064445
H       3.38052923    -0.38857966     2.56493589
H       3.38346444     1.06239472     3.60404619
16 
# or7: geometry number 16. C2-C10 distance: 3.3 
C       0.00000000     0.00000000     0.00000000
C       1.50168242     0.00000000     0.00000000
O       1.99935599     1.26165692     0.00000000
O       2.21003263    -0.97201393     0.00007509
H       2.96637189     1.18264569     0.00005633
H      -0.36991305     0.52964945     0.87921567
H      -0.36994768     0.52996114    -0.87901136
H      -0.36380470    -1.02331507    -0.00015940
C       2.98252675     0.05776596     3.37549677
C       1.48427754     0.12289342     3.29766497
O       0.94029540    -1.10898190     3.13634593
O       0.81409651     1.11930465     3.36543780
H      -0.02154151    -0.98855082     3.09476892
H       3.28230649    -0.57699910     4.21071520
H       3.38105665    -0.39230370     2.46500664
H       3.38399186     1.05867068     3.50411694
16 
# or7: geometry number 17. C2-C10 distance: 3.2 
C       0.00000000     0.00000000     0.00000000
C       1.50168242     0.00000000     0.00000000
O       1.99935599     1.26165692     0.00000000
O       2.21003263    -0.97201393     0.00007509
H       2.96637189     1.18264569     0.00005633
H      -0.36991305     0.52964945     0.87921567
H      -0.36994768     0.52996114    -0.87901136
H      -0.36380470    -1.02331507    -0.00015940
C       2.98305417     0.05404192     3.27556753
C       1.48480496     0.11916938     3.19773573
O       0.94082282    -1.11270594     3.03641669
O       0.81462393     1.11558061     3.26550856
H      -0.02101409    -0.99227486     2.99483968
H       3.28283391    -0.58072314     4.11078596
H       3.38158407    -0.39602774     2.36507740
H       3.38451928     1.05494664     3.40418770
16 
# or7: geometry number 18. C2-C10 distance: 3.1 
C       0.00000000     0.00000000     0.00000000
C       1.50168242     0.00000000     0.00000000
O       1.99935599     1.26165692     0.00000000
O       2.21003263    -0.97201393     0.00007509
H       2.96637189     1.18264569     0.00005633
H      -0.36991305     0.52964945     0.87921567
H      -0.36994768     0.52996114    -0.87901136
H      -0.36380470    -1.02331507    -0.00015940
C       2.98358159     0.05031787     3.17563829
C       1.48533238     0.11544533     3.09780649
O       0.94135024    -1.11642999     2.93648745
O       0.81515135     1.11185656     3.16557932
H      -0.02048667    -0.99599891     2.89491044
H       3.28336133    -0.58444719     4.01085672
H       3.38211149    -0.39975179     2.26514816
H       3.38504670     1.05122259     3.30425846
16 
# or7: geometry number 19. C2-C10 distance: 3 
C       0.00000000     0.00000000     0.00000000
C       1.50168242     0.00000000     0.00000000
O       1.99935599     1.26165692     0.00000000
O       2.21003263    -0.97201393     0.00007509
H       2.96637189     1.18264569     0.00005633
H      -0.36991305     0.52964945     0.87921567
H      -0.36994768     0.52996114    -0.87901136
H      -0.36380470    -1.02331507    -0.00015940
C       2.98410901     0.04659383     3.07570905
C       1.48585980     0.11172129     2.99787725
O       0.94187766    -1.12015403     2.83655821
O       0.81567877     1.10813252     3.06565008
H      -0.01995925    -0.99972295     2.79498120
H       3.28388875    -0.58817123     3.91092748
H       3.38263891    -0.40347583     2.16521892
H       3.38557412     1.04749855     3.20432922
16 
# or7: geometry number 20. C2-C10 distance: 2.95 
C       0.00000000     0.00000000     0.00000000
C       1.50168242     0.00000000     0.00000000
O       1.99935599     1.26165692     0.00000000
O       2.21003263    -0.97201393     0.00007509
H       2.96637189     1.18264569     0.00005633
H      -0.36991305     0.52964945     0.87921567
H      -0.36994768     0.52996114    -0.87901136
H      -0.36380470    -1.02331507    -0.00015940
C       2.98437273     0.04473181     3.02574443
C       1.48612352     0.10985927     2.94791263
O       0.94214138    -1.12201605     2.78659359
O       0.81594249     1.10627050     3.01568546
H      -0.01969553    -1.00158497     2.74501658
H       3.28415247    -0.59003325     3.86096286
H       3.38290263    -0.40533785     2.11525430
H       3.38583784     1.04563653     3.15436460
16 
# or7: geometry number 21. C2-C10 distance: 2.9 
C       0.00000000     0.00000000     0.00000000
C       1.50168242     0.00000000     0.00000000
O       1.99935599     1.26165692     0.00000000
O       2.21003263    -0.97201393     0.00007509
H       2.96637189     1.18264569     0.00005633
H      -0.36991305     0.52964945     0.87921567
H      -0.36994768     0.52996114    -0.87901136
H      -0.36380470    -1.02331507    -0.00015940
C       2.98463644     0.04286979     2.97577981
C       1.48638723     0.10799725     2.89794801
O       0.94240509    -1.12387807     2.73662897
O       0.81620620     1.10440848     2.96572084
H      -0.01943182    -1.00344699     2.69505196
H       3.28441618    -0.59189527     3.81099824
H       3.38316634    -0.40719987     2.06528968
H       3.38610155     1.04377451     3.10439998
16 
# or7: geometry number 22. C2-C10 distance: 2.85 
C       0.00000000     0.00000000     0.00000000
C       1.50168242     0.00000000     0.00000000
O       1.99935599     1.26165692     0.00000000
O       2.21003263    -0.97201393     0.00007509
H       2.96637189     1.18264569     0.00005633
H      -0.36991305     0.52964945     0.87921567
H      -0.36994768     0.52996114    -0.87901136
H      -0.36380470    -1.02331507    -0.00015940
C       2.98490015     0.04100777     2.92581519
C       1.48665094     0.10613523     2.84798339
O       0.94266880    -1.12574009     2.68666435
O       0.81646991     1.10254646     2.91575622
H      -0.01916811    -1.00530901     2.64508734
H       3.28467989    -0.59375729     3.76103362
H       3.38343005    -0.40906189     2.01532506
H       3.38636526     1.04191249     3.05443536
16 
# or7: geometry number 23. C2-C10 distance: 2.8 
C       0.00000000     0.00000000     0.00000000
C       1.50168242     0.00000000     0.00000000
O       1.99935599     1.26165692     0.00000000
O       2.21003263    -0.97201393     0.00007509
H       2.96637189     1.18264569     0.00005633
H      -0.36991305     0.52964945     0.87921567
H      -0.36994768     0.52996114    -0.87901136
H      -0.36380470    -1.02331507    -0.00015940
C       2.98516386     0.03914574     2.87585057
C       1.48691465     0.10427320     2.79801877
O       0.94293251    -1.12760212     2.63669973
O       0.81673362     1.10068443     2.86579160
H      -0.01890440    -1.00717104     2.59512272
H       3.28494360    -0.59561932     3.71106900
H       3.38369376    -0.41092392     1.96536044
H       3.38662897     1.04005046     3.00447074
16 
# or7: geometry number 24. C2-C10 distance: 2.75 
C       0.00000000     0.00000000     0.00000000
C       1.50168242     0.00000000     0.00000000
O       1.99935599     1.26165692     0.00000000
O       2.21003263    -0.97201393     0.00007509
H       2.96637189     1.18264569     0.00005633
H      -0.36991305     0.52964945     0.87921567
H      -0.36994768     0.52996114    -0.87901136
H      -0.36380470    -1.02331507    -0.00015940
C       2.98542757     0.03728372     2.82588594
C       1.48717836     0.10241118     2.74805414
O       0.94319622    -1.12946414     2.58673510
O       0.81699733     1.09882241     2.81582697
H      -0.01864069    -1.00903306     2.54515809
H       3.28520731    -0.59748134     3.66110437
H       3.38395747    -0.41278594     1.91539581
H       3.38689268     1.03818844     2.95450611
16 
# or7: geometry number 25. C2-C10 distance: 2.7 
C       0.00000000     0.00000000     0.00000000
C       1.50168242     0.00000000     0.00000000
O       1.99935599     1.26165692     0.00000000
O       2.21003263    -0.97201393     0.00007509
H       2.96637189     1.18264569     0.00005633
H      -0.36991305     0.52964945     0.87921567
H      -0.36994768     0.52996114    -0.87901136
H      -0.36380470    -1.02331507    -0.00015940
C       2.98569128     0.03542170     2.77592132
C       1.48744207     0.10054916     2.69808952
O       0.94345993    -1.13132616     2.53677048
O       0.81726104     1.09696039     2.76586235
H      -0.01837698    -1.01089508     2.49519347
H       3.28547102    -0.59934336     3.61113975
H       3.38422118    -0.41464796     1.86543119
H       3.38715639     1.03632642     2.90454149
16 
# or7: geometry number 26. C2-C10 distance: 2.65 
C       0.00000000     0.00000000     0.00000000
C       1.50168242     0.00000000     0.00000000
O       1.99935599     1.26165692     0.00000000
O       2.21003263    -0.97201393     0.00007509
H       2.96637189     1.18264569     0.00005633
H      -0.36991305     0.52964945     0.87921567
H      -0.36994768     0.52996114    -0.87901136
H      -0.36380470    -1.02331507    -0.00015940
C       2.98595499     0.03355968     2.72595670
C       1.48770578     0.09868714     2.64812490
O       0.94372364    -1.13318818     2.48680586
O       0.81752475     1.09509837     2.71589773
H      -0.01811327    -1.01275710     2.44522885
H       3.28573473    -0.60120538     3.56117513
H       3.38448489    -0.41650998     1.81546657
H       3.38742010     1.03446440     2.85457687
16 
# or7: geometry number 27. C2-C10 distance: 2.6 
C       0.00000000     0.00000000     0.00000000
C       1.50168242     0.00000000     0.00000000
O       1.99935599     1.26165692     0.00000000
O       2.21003263    -0.97201393     0.00007509
H       2.96637189     1.18264569     0.00005633
H      -0.36991305     0.52964945     0.87921567
H      -0.36994768     0.52996114    -0.87901136
H      -0.36380470    -1.02331507    -0.00015940
C       2.98621870     0.03169766     2.67599208
C       1.48796949     0.09682512     2.59816028
O       0.94398735    -1.13505020     2.43684124
O       0.81778846     1.09323635     2.66593311
H      -0.01784956    -1.01461912     2.39526423
H       3.28599844    -0.60306740     3.51121051
H       3.38474860    -0.41837200     1.76550195
H       3.38768381     1.03260238     2.80461225
16 
# or7: geometry number 28. C2-C10 distance: 2.55 
C       0.00000000     0.00000000     0.00000000
C       1.50168242     0.00000000     0.00000000
O       1.99935599     1.26165692     0.00000000
O       2.21003263    -0.97201393     0.00007509
H       2.96637189     1.18264569     0.00005633
H      -0.36991305     0.52964945     0.87921567
H      -0.36994768     0.52996114    -0.87901136
H      -0.36380470    -1.02331507    -0.00015940
C       2.98648241     0.02983564     2.62602746
C       1.48823320     0.09496310     2.54819566
O       0.94425106    -1.13691222     2.38687662
O       0.81805217     1.09137433     2.61596849
H      -0.01758585    -1.01648114     2.34529961
H       3.28626215    -0.60492942     3.46124589
H       3.38501231    -0.42023402     1.71553733
H       3.38794752     1.03074036     2.75464763
16 
# or7: geometry number 29. C2-C10 distance: 2.5 
C       0.00000000     0.00000000     0.00000000
C       1.50168242     0.00000000     0.00000000
O       1.99935599     1.26165692     0.00000000
O       2.21003263    -0.97201393     0.00007509
H       2.96637189     1.18264569     0.00005633
H      -0.36991305     0.52964945     0.87921567
H      -0.36994768     0.52996114    -0.87901136
H      -0.36380470    -1.02331507    -0.00015940
C       2.98674612     0.02797362     2.57606284
C       1.48849691     0.09310108     2.49823104
O       0.94451477    -1.13877424     2.33691200
O       0.81831588     1.08951231     2.56600387
H      -0.01732214    -1.01834316     2.29533499
H       3.28652586    -0.60679144     3.41128127
H       3.38527602    -0.42209604     1.66557271
H       3.38821123     1.02887834     2.70468301
16 
# or7: geometry number 30. C2-C10 distance: 2.45 
C       0.00000000     0.00000000     0.00000000
C       1.50168242     0.00000000     0.00000000
O       1.99935599     1.26165692     0.00000000
O       2.21003263    -0.97201393     0.00007509
H       2.96637189     1.18264569     0.00005633
H      -0.36991305     0.52964945     0.87921567
H      -0.36994768     0.52996114    -0.87901136
H      -0.36380470    -1.02331507    -0.00015940
C       2.98700983     0.02611159     2.52609822
C       1.48876062     0.09123905     2.44826642
O       0.94477848    -1.14063627     2.28694738
O       0.81857959     1.08765028     2.51603925
H      -0.01705843    -1.02020519     2.24537037
H       3.28678957    -0.60865347     3.36131665
H       3.38553973    -0.42395807     1.61560809
H       3.38847494     1.02701631     2.65471839
16 
# or7: geometry number 31. C2-C10 distance: 2.4 
C       0.00000000     0.00000000     0.00000000
C       1.50168242     0.00000000     0.00000000
O       1.99935599     1.26165692     0.00000000
O       2.21003263    -0.97201393     0.00007509
H       2.96637189     1.18264569     0.00005633
H      -0.36991305     0.52964945     0.87921567
H      -0.36994768     0.52996114    -0.87901136
H      -0.36380470    -1.02331507    -0.00015940
C       2.98727354     0.02424957     2.47613360
C       1.48902433     0.08937703     2.39830180
O       0.94504219    -1.14249829     2.23698276
O       0.81884330     1.08578826     2.46607463
H      -0.01679472    -1.02206721     2.19540575
H       3.28705328    -0.61051549     3.31135203
H       3.38580344    -0.42582009     1.56564347
H       3.38873865     1.02515429     2.60475377
