17 
# or15: geometry number 1. N3-O12 distance: 10 
C      -0.41153393    -0.01999626     1.32443888
C      -1.75302462     0.59863550     1.66583872
N      -1.72097285     1.94111966     1.90286620
O      -2.75581529    -0.06566004     1.84037134
H      -2.56816966     2.39443090     2.20246431
H      -0.90378362     2.49789869     1.73265059
H      -0.26782014    -0.90159084     1.94741406
H      -0.43780163    -0.35069753     0.28474414
H       0.43030144     0.65998225     1.45696894
C      -6.49775035     3.66430015    -7.13974530
C      -5.42045099     3.81792365    -8.17457671
O      -4.18494591     3.69485584    -7.62883072
O      -5.58908753     4.02435352    -9.34740214
H      -3.54622948     3.80462247    -8.35087996
H      -6.41452922     2.68726157    -6.66135823
H      -6.37395438     4.41933067    -6.36193777
H      -7.47126036     3.76835298    -7.60982924
17 
# or15: geometry number 2. N3-O12 distance: 9 
C      -0.41153393    -0.01999626     1.32443888
C      -1.75302462     0.59863550     1.66583872
N      -1.72097285     1.94111966     1.90286620
O      -2.75581529    -0.06566004     1.84037134
H      -2.56816966     2.39443090     2.20246431
H      -0.90378362     2.49789869     1.73265059
H      -0.26782014    -0.90159084     1.94741406
H      -0.43780163    -0.35069753     0.28474414
H       0.43030144     0.65998225     1.45696894
C      -6.25135304     3.48892653    -6.18657561
C      -5.17405368     3.64255003    -7.22140702
O      -3.93854860     3.51948222    -6.67566103
O      -5.34269022     3.84897990    -8.39423245
H      -3.29983217     3.62924885    -7.39771027
H      -6.16813191     2.51188795    -5.70818854
H      -6.12755707     4.24395705    -5.40876808
H      -7.22486305     3.59297936    -6.65665955
17 
# or15: geometry number 3. N3-O12 distance: 8 
C      -0.41153393    -0.01999626     1.32443888
C      -1.75302462     0.59863550     1.66583872
N      -1.72097285     1.94111966     1.90286620
O      -2.75581529    -0.06566004     1.84037134
H      -2.56816966     2.39443090     2.20246431
H      -0.90378362     2.49789869     1.73265059
H      -0.26782014    -0.90159084     1.94741406
H      -0.43780163    -0.35069753     0.28474414
H       0.43030144     0.65998225     1.45696894
C      -6.00495573     3.31355291    -5.23340592
C      -4.92765637     3.46717641    -6.26823733
O      -3.69215129     3.34410860    -5.72249134
O      -5.09629291     3.67360628    -7.44106276
H      -3.05343486     3.45387523    -6.44454058
H      -5.92173460     2.33651433    -4.75501885
H      -5.88115976     4.06858343    -4.45559839
H      -6.97846574     3.41760574    -5.70348986
17 
# or15: geometry number 4. N3-O12 distance: 7 
C      -0.41153393    -0.01999626     1.32443888
C      -1.75302462     0.59863550     1.66583872
N      -1.72097285     1.94111966     1.90286620
O      -2.75581529    -0.06566004     1.84037134
H      -2.56816966     2.39443090     2.20246431
H      -0.90378362     2.49789869     1.73265059
H      -0.26782014    -0.90159084     1.94741406
H      -0.43780163    -0.35069753     0.28474414
H       0.43030144     0.65998225     1.45696894
C      -5.75855843     3.13817929    -4.28023622
C      -4.68125907     3.29180279    -5.31506763
O      -3.44575399     3.16873498    -4.76932164
O      -4.84989561     3.49823266    -6.48789306
H      -2.80703756     3.27850161    -5.49137088
H      -5.67533730     2.16114071    -3.80184915
H      -5.63476246     3.89320981    -3.50242869
H      -6.73206844     3.24223212    -4.75032016
17 
# or15: geometry number 5. N3-O12 distance: 6 
C      -0.41153393    -0.01999626     1.32443888
C      -1.75302462     0.59863550     1.66583872
N      -1.72097285     1.94111966     1.90286620
O      -2.75581529    -0.06566004     1.84037134
H      -2.56816966     2.39443090     2.20246431
H      -0.90378362     2.49789869     1.73265059
H      -0.26782014    -0.90159084     1.94741406
H      -0.43780163    -0.35069753     0.28474414
H       0.43030144     0.65998225     1.45696894
C      -5.51216112     2.96280568    -3.32706653
C      -4.43486176     3.11642918    -4.36189794
O      -3.19935668     2.99336137    -3.81615195
O      -4.60349830     3.32285905    -5.53472337
H      -2.56064025     3.10312800    -4.53820119
H      -5.42893999     1.98576710    -2.84867946
H      -5.38836515     3.71783620    -2.54925900
H      -6.48567113     3.06685851    -3.79715047
17 
# or15: geometry number 6. N3-O12 distance: 5 
C      -0.41153393    -0.01999626     1.32443888
C      -1.75302462     0.59863550     1.66583872
N      -1.72097285     1.94111966     1.90286620
O      -2.75581529    -0.06566004     1.84037134
H      -2.56816966     2.39443090     2.20246431
H      -0.90378362     2.49789869     1.73265059
H      -0.26782014    -0.90159084     1.94741406
H      -0.43780163    -0.35069753     0.28474414
H       0.43030144     0.65998225     1.45696894
C      -5.26576382     2.78743206    -2.37389684
C      -4.18846446     2.94105556    -3.40872825
O      -2.95295938     2.81798775    -2.86298226
O      -4.35710100     3.14748543    -4.58155368
H      -2.31424295     2.92775438    -3.58503150
H      -5.18254269     1.81039348    -1.89550977
H      -5.14196785     3.54246258    -1.59608931
H      -6.23927383     2.89148489    -2.84398078
17 
# or15: geometry number 7. N3-O12 distance: 4.7 
C      -0.41153393    -0.01999626     1.32443888
C      -1.75302462     0.59863550     1.66583872
N      -1.72097285     1.94111966     1.90286620
O      -2.75581529    -0.06566004     1.84037134
H      -2.56816966     2.39443090     2.20246431
H      -0.90378362     2.49789869     1.73265059
H      -0.26782014    -0.90159084     1.94741406
H      -0.43780163    -0.35069753     0.28474414
H       0.43030144     0.65998225     1.45696894
C      -5.19184463     2.73481997    -2.08794593
C      -4.11454527     2.88844347    -3.12277734
O      -2.87904019     2.76537566    -2.57703135
O      -4.28318181     3.09487334    -4.29560277
H      -2.24032376     2.87514229    -3.29908059
H      -5.10862350     1.75778139    -1.60955886
H      -5.06804866     3.48985049    -1.31013840
H      -6.16535464     2.83887280    -2.55802987
17 
# or15: geometry number 8. N3-O12 distance: 4.4 
C      -0.41153393    -0.01999626     1.32443888
C      -1.75302462     0.59863550     1.66583872
N      -1.72097285     1.94111966     1.90286620
O      -2.75581529    -0.06566004     1.84037134
H      -2.56816966     2.39443090     2.20246431
H      -0.90378362     2.49789869     1.73265059
H      -0.26782014    -0.90159084     1.94741406
H      -0.43780163    -0.35069753     0.28474414
H       0.43030144     0.65998225     1.45696894
C      -5.11792543     2.68220789    -1.80199503
C      -4.04062607     2.83583139    -2.83682644
O      -2.80512099     2.71276358    -2.29108045
O      -4.20926261     3.04226126    -4.00965187
H      -2.16640456     2.82253021    -3.01312969
H      -5.03470430     1.70516931    -1.32360796
H      -4.99412946     3.43723841    -1.02418750
H      -6.09143544     2.78626072    -2.27207897
17 
# or15: geometry number 9. N3-O12 distance: 4.2 
C      -0.41153393    -0.01999626     1.32443888
C      -1.75302462     0.59863550     1.66583872
N      -1.72097285     1.94111966     1.90286620
O      -2.75581529    -0.06566004     1.84037134
H      -2.56816966     2.39443090     2.20246431
H      -0.90378362     2.49789869     1.73265059
H      -0.26782014    -0.90159084     1.94741406
H      -0.43780163    -0.35069753     0.28474414
H       0.43030144     0.65998225     1.45696894
C      -5.06864597     2.64713316    -1.61136109
C      -3.99134661     2.80075666    -2.64619250
O      -2.75584153     2.67768885    -2.10044651
O      -4.15998315     3.00718653    -3.81901793
H      -2.11712510     2.78745548    -2.82249575
H      -4.98542484     1.67009458    -1.13297402
H      -4.94485000     3.40216368    -0.83355356
H      -6.04215598     2.75118599    -2.08144503
17 
# or15: geometry number 10. N3-O12 distance: 4 
C      -0.41153393    -0.01999626     1.32443888
C      -1.75302462     0.59863550     1.66583872
N      -1.72097285     1.94111966     1.90286620
O      -2.75581529    -0.06566004     1.84037134
H      -2.56816966     2.39443090     2.20246431
H      -0.90378362     2.49789869     1.73265059
H      -0.26782014    -0.90159084     1.94741406
H      -0.43780163    -0.35069753     0.28474414
H       0.43030144     0.65998225     1.45696894
C      -5.01936651     2.61205844    -1.42072715
C      -3.94206715     2.76568194    -2.45555856
O      -2.70656207     2.64261413    -1.90981257
O      -4.11070369     2.97211181    -3.62838399
H      -2.06784564     2.75238076    -2.63186181
H      -4.93614538     1.63501986    -0.94234008
H      -4.89557054     3.36708896    -0.64291962
H      -5.99287652     2.71611127    -1.89081109
17 
# or15: geometry number 11. N3-O12 distance: 3.8 
C      -0.41153393    -0.01999626     1.32443888
C      -1.75302462     0.59863550     1.66583872
N      -1.72097285     1.94111966     1.90286620
O      -2.75581529    -0.06566004     1.84037134
H      -2.56816966     2.39443090     2.20246431
H      -0.90378362     2.49789869     1.73265059
H      -0.26782014    -0.90159084     1.94741406
H      -0.43780163    -0.35069753     0.28474414
H       0.43030144     0.65998225     1.45696894
C      -4.97008705     2.57698372    -1.23009321
C      -3.89278769     2.73060722    -2.26492462
O      -2.65728261     2.60753941    -1.71917863
O      -4.06142423     2.93703709    -3.43775005
H      -2.01856618     2.71730604    -2.44122787
H      -4.88686592     1.59994514    -0.75170614
H      -4.84629108     3.33201424    -0.45228568
H      -5.94359706     2.68103655    -1.70017715
17 
# or15: geometry number 12. N3-O12 distance: 3.7 
C      -0.41153393    -0.01999626     1.32443888
C      -1.75302462     0.59863550     1.66583872
N      -1.72097285     1.94111966     1.90286620
O      -2.75581529    -0.06566004     1.84037134
H      -2.56816966     2.39443090     2.20246431
H      -0.90378362     2.49789869     1.73265059
H      -0.26782014    -0.90159084     1.94741406
H      -0.43780163    -0.35069753     0.28474414
H       0.43030144     0.65998225     1.45696894
C      -4.94544732     2.55944636    -1.13477624
C      -3.86814796     2.71306986    -2.16960765
O      -2.63264288     2.59000205    -1.62386166
O      -4.03678450     2.91949973    -3.34243308
H      -1.99392645     2.69976868    -2.34591090
H      -4.86222619     1.58240778    -0.65638917
H      -4.82165135     3.31447688    -0.35696871
H      -5.91895733     2.66349919    -1.60486018
17 
# or15: geometry number 13. N3-O12 distance: 3.6 
C      -0.41153393    -0.01999626     1.32443888
C      -1.75302462     0.59863550     1.66583872
N      -1.72097285     1.94111966     1.90286620
O      -2.75581529    -0.06566004     1.84037134
H      -2.56816966     2.39443090     2.20246431
H      -0.90378362     2.49789869     1.73265059
H      -0.26782014    -0.90159084     1.94741406
H      -0.43780163    -0.35069753     0.28474414
H       0.43030144     0.65998225     1.45696894
C      -4.92080759     2.54190899    -1.03945927
C      -3.84350823     2.69553249    -2.07429068
O      -2.60800315     2.57246468    -1.52854469
O      -4.01214477     2.90196236    -3.24711611
H      -1.96928672     2.68223131    -2.25059393
H      -4.83758646     1.56487041    -0.56107220
H      -4.79701162     3.29693951    -0.26165174
H      -5.89431760     2.64596182    -1.50954321
17 
# or15: geometry number 14. N3-O12 distance: 3.5 
C      -0.41153393    -0.01999626     1.32443888
C      -1.75302462     0.59863550     1.66583872
N      -1.72097285     1.94111966     1.90286620
O      -2.75581529    -0.06566004     1.84037134
H      -2.56816966     2.39443090     2.20246431
H      -0.90378362     2.49789869     1.73265059
H      -0.26782014    -0.90159084     1.94741406
H      -0.43780163    -0.35069753     0.28474414
H       0.43030144     0.65998225     1.45696894
C      -4.89616786     2.52437163    -0.94414230
C      -3.81886850     2.67799513    -1.97897371
O      -2.58336342     2.55492732    -1.43322772
O      -3.98750504     2.88442500    -3.15179914
H      -1.94464699     2.66469395    -2.15527696
H      -4.81294673     1.54733305    -0.46575523
H      -4.77237189     3.27940215    -0.16633477
H      -5.86967787     2.62842446    -1.41422624
17 
# or15: geometry number 15. N3-O12 distance: 3.4 
C      -0.41153393    -0.01999626     1.32443888
C      -1.75302462     0.59863550     1.66583872
N      -1.72097285     1.94111966     1.90286620
O      -2.75581529    -0.06566004     1.84037134
H      -2.56816966     2.39443090     2.20246431
H      -0.90378362     2.49789869     1.73265059
H      -0.26782014    -0.90159084     1.94741406
H      -0.43780163    -0.35069753     0.28474414
H       0.43030144     0.65998225     1.45696894
C      -4.87152813     2.50683427    -0.84882533
C      -3.79422877     2.66045777    -1.88365674
O      -2.55872369     2.53738996    -1.33791075
O      -3.96286531     2.86688764    -3.05648217
H      -1.92000726     2.64715659    -2.05995999
H      -4.78830700     1.52979569    -0.37043826
H      -4.74773216     3.26186479    -0.07101780
H      -5.84503814     2.61088710    -1.31890927
17 
# or15: geometry number 16. N3-O12 distance: 3.3 
C      -0.41153393    -0.01999626     1.32443888
C      -1.75302462     0.59863550     1.66583872
N      -1.72097285     1.94111966     1.90286620
O      -2.75581529    -0.06566004     1.84037134
H      -2.56816966     2.39443090     2.20246431
H      -0.90378362     2.49789869     1.73265059
H      -0.26782014    -0.90159084     1.94741406
H      -0.43780163    -0.35069753     0.28474414
H       0.43030144     0.65998225     1.45696894
C      -4.84688840     2.48929691    -0.75350836
C      -3.76958904     2.64292041    -1.78833977
O      -2.53408396     2.51985260    -1.24259378
O      -3.93822558     2.84935028    -2.96116520
H      -1.89536753     2.62961923    -1.96464302
H      -4.76366727     1.51225833    -0.27512129
H      -4.72309243     3.24432743     0.02429917
H      -5.82039841     2.59334974    -1.22359230
17 
# or15: geometry number 17. N3-O12 distance: 3.2 
C      -0.41153393    -0.01999626     1.32443888
C      -1.75302462     0.59863550     1.66583872
N      -1.72097285     1.94111966     1.90286620
O      -2.75581529    -0.06566004     1.84037134
H      -2.56816966     2.39443090     2.20246431
H      -0.90378362     2.49789869     1.73265059
H      -0.26782014    -0.90159084     1.94741406
H      -0.43780163    -0.35069753     0.28474414
H       0.43030144     0.65998225     1.45696894
C      -4.82224867     2.47175955    -0.65819139
C      -3.74494931     2.62538305    -1.69302280
O      -2.50944423     2.50231524    -1.14727681
O      -3.91358585     2.83181292    -2.86584823
H      -1.87072780     2.61208187    -1.86932605
H      -4.73902754     1.49472097    -0.17980432
H      -4.69845270     3.22679007     0.11961614
H      -5.79575868     2.57581238    -1.12827533
17 
# or15: geometry number 18. N3-O12 distance: 3.1 
C      -0.41153393    -0.01999626     1.32443888
C      -1.75302462     0.59863550     1.66583872
N      -1.72097285     1.94111966     1.90286620
O      -2.75581529    -0.06566004     1.84037134
H      -2.56816966     2.39443090     2.20246431
H      -0.90378362     2.49789869     1.73265059
H      -0.26782014    -0.90159084     1.94741406
H      -0.43780163    -0.35069753     0.28474414
H       0.43030144     0.65998225     1.45696894
C      -4.79760894     2.45422219    -0.56287443
C      -3.72030958     2.60784569    -1.59770584
O      -2.48480450     2.48477788    -1.05195985
O      -3.88894612     2.81427556    -2.77053127
H      -1.84608807     2.59454451    -1.77400909
H      -4.71438781     1.47718361    -0.08448736
H      -4.67381297     3.20925271     0.21493310
H      -5.77111895     2.55827502    -1.03295837
17 
# or15: geometry number 19. N3-O12 distance: 3 
C      -0.41153393    -0.01999626     1.32443888
C      -1.75302462     0.59863550     1.66583872
N      -1.72097285     1.94111966     1.90286620
O      -2.75581529    -0.06566004     1.84037134
H      -2.56816966     2.39443090     2.20246431
H      -0.90378362     2.49789869     1.73265059
H      -0.26782014    -0.90159084     1.94741406
H      -0.43780163    -0.35069753     0.28474414
H       0.43030144     0.65998225     1.45696894
C      -4.77296921     2.43668482    -0.46755746
C      -3.69566985     2.59030832    -1.50238887
O      -2.46016477     2.46724051    -0.95664288
O      -3.86430639     2.79673819    -2.67521430
H      -1.82144834     2.57700714    -1.67869212
H      -4.68974808     1.45964624     0.01082961
H      -4.64917324     3.19171534     0.31025007
H      -5.74647922     2.54073765    -0.93764140
17 
# or15: geometry number 20. N3-O12 distance: 2.9 
C      -0.41153393    -0.01999626     1.32443888
C      -1.75302462     0.59863550     1.66583872
N      -1.72097285     1.94111966     1.90286620
O      -2.75581529    -0.06566004     1.84037134
H      -2.56816966     2.39443090     2.20246431
H      -0.90378362     2.49789869     1.73265059
H      -0.26782014    -0.90159084     1.94741406
H      -0.43780163    -0.35069753     0.28474414
H       0.43030144     0.65998225     1.45696894
C      -4.74832948     2.41914746    -0.37224049
C      -3.67103012     2.57277096    -1.40707190
O      -2.43552504     2.44970315    -0.86132591
O      -3.83966666     2.77920083    -2.57989733
H      -1.79680861     2.55946978    -1.58337515
H      -4.66510835     1.44210888     0.10614658
H      -4.62453351     3.17417798     0.40556704
H      -5.72183949     2.52320029    -0.84232443
17 
# or15: geometry number 21. N3-O12 distance: 2.8 
C      -0.41153393    -0.01999626     1.32443888
C      -1.75302462     0.59863550     1.66583872
N      -1.72097285     1.94111966     1.90286620
O      -2.75581529    -0.06566004     1.84037134
H      -2.56816966     2.39443090     2.20246431
H      -0.90378362     2.49789869     1.73265059
H      -0.26782014    -0.90159084     1.94741406
H      -0.43780163    -0.35069753     0.28474414
H       0.43030144     0.65998225     1.45696894
C      -4.72368975     2.40161010    -0.27692352
C      -3.64639039     2.55523360    -1.31175493
O      -2.41088531     2.43216579    -0.76600894
O      -3.81502693     2.76166347    -2.48458036
H      -1.77216888     2.54193242    -1.48805818
H      -4.64046862     1.42457152     0.20146355
H      -4.59989378     3.15664062     0.50088401
H      -5.69719976     2.50566293    -0.74700746
17 
# or15: geometry number 22. N3-O12 distance: 2.7 
C      -0.41153393    -0.01999626     1.32443888
C      -1.75302462     0.59863550     1.66583872
N      -1.72097285     1.94111966     1.90286620
O      -2.75581529    -0.06566004     1.84037134
H      -2.56816966     2.39443090     2.20246431
H      -0.90378362     2.49789869     1.73265059
H      -0.26782014    -0.90159084     1.94741406
H      -0.43780163    -0.35069753     0.28474414
H       0.43030144     0.65998225     1.45696894
C      -4.69905002     2.38407274    -0.18160655
C      -3.62175066     2.53769624    -1.21643796
O      -2.38624558     2.41462843    -0.67069197
O      -3.79038720     2.74412611    -2.38926339
H      -1.74752915     2.52439506    -1.39274121
H      -4.61582889     1.40703416     0.29678052
H      -4.57525405     3.13910326     0.59620098
H      -5.67256003     2.48812557    -0.65169049
17 
# or15: geometry number 23. N3-O12 distance: 2.6 
C      -0.41153393    -0.01999626     1.32443888
C      -1.75302462     0.59863550     1.66583872
N      -1.72097285     1.94111966     1.90286620
O      -2.75581529    -0.06566004     1.84037134
H      -2.56816966     2.39443090     2.20246431
H      -0.90378362     2.49789869     1.73265059
H      -0.26782014    -0.90159084     1.94741406
H      -0.43780163    -0.35069753     0.28474414
H       0.43030144     0.65998225     1.45696894
C      -4.67441028     2.36653538    -0.08628958
C      -3.59711092     2.52015888    -1.12112099
O      -2.36160584     2.39709107    -0.57537500
O      -3.76574746     2.72658875    -2.29394642
H      -1.72288941     2.50685770    -1.29742424
H      -4.59118915     1.38949680     0.39209749
H      -4.55061431     3.12156590     0.69151795
H      -5.64792029     2.47058821    -0.55637352
17 
# or15: geometry number 24. N3-O12 distance: 2.5 
C      -0.41153393    -0.01999626     1.32443888
C      -1.75302462     0.59863550     1.66583872
N      -1.72097285     1.94111966     1.90286620
O      -2.75581529    -0.06566004     1.84037134
H      -2.56816966     2.39443090     2.20246431
H      -0.90378362     2.49789869     1.73265059
H      -0.26782014    -0.90159084     1.94741406
H      -0.43780163    -0.35069753     0.28474414
H       0.43030144     0.65998225     1.45696894
C      -4.64977055     2.34899801     0.00902739
C      -3.57247119     2.50262151    -1.02580402
O      -2.33696611     2.37955370    -0.48005803
O      -3.74110773     2.70905138    -2.19862945
H      -1.69824968     2.48932033    -1.20210727
H      -4.56654942     1.37195943     0.48741446
H      -4.52597458     3.10402853     0.78683492
H      -5.62328056     2.45305084    -0.46105655
17 
# or15: geometry number 25. N3-O12 distance: 2.45 
C      -0.41153393    -0.01999626     1.32443888
C      -1.75302462     0.59863550     1.66583872
N      -1.72097285     1.94111966     1.90286620
O      -2.75581529    -0.06566004     1.84037134
H      -2.56816966     2.39443090     2.20246431
H      -0.90378362     2.49789869     1.73265059
H      -0.26782014    -0.90159084     1.94741406
H      -0.43780163    -0.35069753     0.28474414
H       0.43030144     0.65998225     1.45696894
C      -4.63745069     2.34022933     0.05668587
C      -3.56015133     2.49385283    -0.97814554
O      -2.32464625     2.37078502    -0.43239955
O      -3.72878787     2.70028270    -2.15097097
H      -1.68592982     2.48055165    -1.15444879
H      -4.55422956     1.36319075     0.53507294
H      -4.51365472     3.09525985     0.83449340
H      -5.61096070     2.44428216    -0.41339807
17 
# or15: geometry number 26. N3-O12 distance: 2.4 
C      -0.41153393    -0.01999626     1.32443888
C      -1.75302462     0.59863550     1.66583872
N      -1.72097285     1.94111966     1.90286620
O      -2.75581529    -0.06566004     1.84037134
H      -2.56816966     2.39443090     2.20246431
H      -0.90378362     2.49789869     1.73265059
H      -0.26782014    -0.90159084     1.94741406
H      -0.43780163    -0.35069753     0.28474414
H       0.43030144     0.65998225     1.45696894
C      -4.62513082     2.33146065     0.10434436
C      -3.54783146     2.48508415    -0.93048705
O      -2.31232638     2.36201634    -0.38474106
O      -3.71646800     2.69151402    -2.10331248
H      -1.67360995     2.47178297    -1.10679030
H      -4.54190969     1.35442207     0.58273143
H      -4.50133485     3.08649117     0.88215189
H      -5.59864083     2.43551348    -0.36573958
17 
# or15: geometry number 27. N3-O12 distance: 2.35 
C      -0.41153393    -0.01999626     1.32443888
C      -1.75302462     0.59863550     1.66583872
N      -1.72097285     1.94111966     1.90286620
O      -2.75581529    -0.06566004     1.84037134
H      -2.56816966     2.39443090     2.20246431
H      -0.90378362     2.49789869     1.73265059
H      -0.26782014    -0.90159084     1.94741406
H      -0.43780163    -0.35069753     0.28474414
H       0.43030144     0.65998225     1.45696894
C      -4.61281096     2.32269197     0.15200284
C      -3.53551160     2.47631547    -0.88282857
O      -2.30000652     2.35324766    -0.33708258
O      -3.70414814     2.68274534    -2.05565400
H      -1.66129009     2.46301429    -1.05913182
H      -4.52958983     1.34565339     0.63038991
H      -4.48901499     3.07772249     0.92981037
H      -5.58632097     2.42674480    -0.31808110
17 
# or15: geometry number 28. N3-O12 distance: 2.3 
C      -0.41153393    -0.01999626     1.32443888
C      -1.75302462     0.59863550     1.66583872
N      -1.72097285     1.94111966     1.90286620
O      -2.75581529    -0.06566004     1.84037134
H      -2.56816966     2.39443090     2.20246431
H      -0.90378362     2.49789869     1.73265059
H      -0.26782014    -0.90159084     1.94741406
H      -0.43780163    -0.35069753     0.28474414
H       0.43030144     0.65998225     1.45696894
C      -4.60049109     2.31392329     0.19966133
C      -3.52319173     2.46754679    -0.83517008
O      -2.28768665     2.34447898    -0.28942409
O      -3.69182827     2.67397666    -2.00799551
H      -1.64897022     2.45424561    -1.01147333
H      -4.51726996     1.33688471     0.67804840
H      -4.47669512     3.06895381     0.97746886
H      -5.57400110     2.41797612    -0.27042261
17 
# or15: geometry number 29. N3-O12 distance: 2.25 
C      -0.41153393    -0.01999626     1.32443888
C      -1.75302462     0.59863550     1.66583872
N      -1.72097285     1.94111966     1.90286620
O      -2.75581529    -0.06566004     1.84037134
H      -2.56816966     2.39443090     2.20246431
H      -0.90378362     2.49789869     1.73265059
H      -0.26782014    -0.90159084     1.94741406
H      -0.43780163    -0.35069753     0.28474414
H       0.43030144     0.65998225     1.45696894
C      -4.58817123     2.30515461     0.24731981
C      -3.51087187     2.45877811    -0.78751160
O      -2.27536679     2.33571030    -0.24176561
O      -3.67950841     2.66520798    -1.96033703
H      -1.63665036     2.44547693    -0.96381485
H      -4.50495010     1.32811603     0.72570688
H      -4.46437526     3.06018513     1.02512734
H      -5.56168124     2.40920744    -0.22276413
17 
# or15: geometry number 30. N3-O12 distance: 2.2 
C      -0.41153393    -0.01999626     1.32443888
C      -1.75302462     0.59863550     1.66583872
N      -1.72097285     1.94111966     1.90286620
O      -2.75581529    -0.06566004     1.84037134
H      -2.56816966     2.39443090     2.20246431
H      -0.90378362     2.49789869     1.73265059
H      -0.26782014    -0.90159084     1.94741406
H      -0.43780163    -0.35069753     0.28474414
H       0.43030144     0.65998225     1.45696894
C      -4.57585136     2.29638593     0.29497830
C      -3.49855200     2.45000943    -0.73985311
O      -2.26304692     2.32694162    -0.19410712
O      -3.66718854     2.65643930    -1.91267854
H      -1.62433049     2.43670825    -0.91615636
H      -4.49263023     1.31934735     0.77336537
H      -4.45205539     3.05141645     1.07278583
H      -5.54936137     2.40043876    -0.17510564
17 
# or15: geometry number 31. N3-O12 distance: 2.15 
C      -0.41153393    -0.01999626     1.32443888
C      -1.75302462     0.59863550     1.66583872
N      -1.72097285     1.94111966     1.90286620
O      -2.75581529    -0.06566004     1.84037134
H      -2.56816966     2.39443090     2.20246431
H      -0.90378362     2.49789869     1.73265059
H      -0.26782014    -0.90159084     1.94741406
H      -0.43780163    -0.35069753     0.28474414
H       0.43030144     0.65998225     1.45696894
C      -4.56353150     2.28761725     0.34263678
C      -3.48623214     2.44124075    -0.69219463
O      -2.25072706     2.31817294    -0.14644864
O      -3.65486868     2.64767062    -1.86502006
H      -1.61201063     2.42793957    -0.86849788
H      -4.48031037     1.31057867     0.82102385
H      -4.43973553     3.04264777     1.12044431
H      -5.53704151     2.39167008    -0.12744716
17 
# or15: geometry number 32. N3-O12 distance: 2.1 
C      -0.41153393    -0.01999626     1.32443888
C      -1.75302462     0.59863550     1.66583872
N      -1.72097285     1.94111966     1.90286620
O      -2.75581529    -0.06566004     1.84037134
H      -2.56816966     2.39443090     2.20246431
H      -0.90378362     2.49789869     1.73265059
H      -0.26782014    -0.90159084     1.94741406
H      -0.43780163    -0.35069753     0.28474414
H       0.43030144     0.65998225     1.45696894
C      -4.55121163     2.27884857     0.39029527
C      -3.47391227     2.43247207    -0.64453614
O      -2.23840719     2.30940426    -0.09879015
O      -3.64254881     2.63890194    -1.81736157
H      -1.59969076     2.41917089    -0.82083939
H      -4.46799050     1.30180999     0.86868234
H      -4.42741566     3.03387909     1.16810280
H      -5.52472164     2.38290140    -0.07978867
