17 
# or17: geometry number 1. N3-H14 distance: 10 
C      -0.20613796    -0.16696175     2.19051385
C      -1.61590678     0.38647098     2.11895624
N      -1.71051283     1.73638174     2.28707432
O      -2.59721551    -0.32693584     2.04531378
H      -2.62684762     2.15144920     2.31935607
H      -0.90377808     2.33212237     2.31942608
H      -0.20116591    -1.01555863     2.87302346
H       0.07089935    -0.53646305     1.20170770
H       0.53504505     0.56418134     2.51408655
C      -1.34775197     4.75528140   -10.28983517
C      -1.33473577     4.45336251    -8.81887436
O      -1.26148625     3.11937767    -8.58525903
O      -1.38163092     5.26159926    -7.92942213
H      -1.25736526     3.00223317    -7.62212733
H      -0.44414957     4.36023629   -10.75655395
H      -2.19966721     4.26276923   -10.76106045
H      -1.40697752     5.82923950   -10.44028106
17 
# or17: geometry number 2. N3-H14 distance: 9 
C      -0.20613796    -0.16696175     2.19051385
C      -1.61590678     0.38647098     2.11895624
N      -1.71051283     1.73638174     2.28707432
O      -2.59721551    -0.32693584     2.04531378
H      -2.62684762     2.15144920     2.31935607
H      -0.90377808     2.33212237     2.31942608
H      -0.20116591    -1.01555863     2.87302346
H       0.07089935    -0.53646305     1.20170770
H       0.53504505     0.56418134     2.51408655
C      -1.39306673     4.62869626    -9.29891501
C      -1.38005053     4.32677737    -7.82795420
O      -1.30680101     2.99279253    -7.59433887
O      -1.42694568     5.13501412    -6.93850197
H      -1.30268002     2.87564803    -6.63120717
H      -0.48946433     4.23365115    -9.76563379
H      -2.24498197     4.13618409    -9.77014029
H      -1.45229228     5.70265436    -9.44936090
17 
# or17: geometry number 3. N3-H14 distance: 8 
C      -0.20613796    -0.16696175     2.19051385
C      -1.61590678     0.38647098     2.11895624
N      -1.71051283     1.73638174     2.28707432
O      -2.59721551    -0.32693584     2.04531378
H      -2.62684762     2.15144920     2.31935607
H      -0.90377808     2.33212237     2.31942608
H      -0.20116591    -1.01555863     2.87302346
H       0.07089935    -0.53646305     1.20170770
H       0.53504505     0.56418134     2.51408655
C      -1.43838148     4.50211112    -8.30799484
C      -1.42536528     4.20019223    -6.83703403
O      -1.35211576     2.86620739    -6.60341870
O      -1.47226043     5.00842898    -5.94758180
H      -1.34799477     2.74906289    -5.64028700
H      -0.53477908     4.10706601    -8.77471362
H      -2.29029672     4.00959895    -8.77922012
H      -1.49760703     5.57606922    -8.45844073
17 
# or17: geometry number 4. N3-H14 distance: 7 
C      -0.20613796    -0.16696175     2.19051385
C      -1.61590678     0.38647098     2.11895624
N      -1.71051283     1.73638174     2.28707432
O      -2.59721551    -0.32693584     2.04531378
H      -2.62684762     2.15144920     2.31935607
H      -0.90377808     2.33212237     2.31942608
H      -0.20116591    -1.01555863     2.87302346
H       0.07089935    -0.53646305     1.20170770
H       0.53504505     0.56418134     2.51408655
C      -1.48369624     4.37552597    -7.31707468
C      -1.47068004     4.07360708    -5.84611387
O      -1.39743052     2.73962224    -5.61249854
O      -1.51757519     4.88184383    -4.95666164
H      -1.39330953     2.62247774    -4.64936684
H      -0.58009384     3.98048086    -7.78379346
H      -2.33561148     3.88301380    -7.78829996
H      -1.54292179     5.44948407    -7.46752057
17 
# or17: geometry number 5. N3-H14 distance: 6 
C      -0.20613796    -0.16696175     2.19051385
C      -1.61590678     0.38647098     2.11895624
N      -1.71051283     1.73638174     2.28707432
O      -2.59721551    -0.32693584     2.04531378
H      -2.62684762     2.15144920     2.31935607
H      -0.90377808     2.33212237     2.31942608
H      -0.20116591    -1.01555863     2.87302346
H       0.07089935    -0.53646305     1.20170770
H       0.53504505     0.56418134     2.51408655
C      -1.52901100     4.24894083    -6.32615451
C      -1.51599480     3.94702194    -4.85519370
O      -1.44274528     2.61303710    -4.62157837
O      -1.56288995     4.75525869    -3.96574147
H      -1.43862429     2.49589260    -3.65844667
H      -0.62540860     3.85389572    -6.79287329
H      -2.38092624     3.75642866    -6.79737979
H      -1.58823655     5.32289893    -6.47660040
17 
# or17: geometry number 6. N3-H14 distance: 5 
C      -0.20613796    -0.16696175     2.19051385
C      -1.61590678     0.38647098     2.11895624
N      -1.71051283     1.73638174     2.28707432
O      -2.59721551    -0.32693584     2.04531378
H      -2.62684762     2.15144920     2.31935607
H      -0.90377808     2.33212237     2.31942608
H      -0.20116591    -1.01555863     2.87302346
H       0.07089935    -0.53646305     1.20170770
H       0.53504505     0.56418134     2.51408655
C      -1.57432575     4.12235569    -5.33523435
C      -1.56130955     3.82043680    -3.86427354
O      -1.48806003     2.48645196    -3.63065821
O      -1.60820470     4.62867355    -2.97482131
H      -1.48393904     2.36930746    -2.66752651
H      -0.67072335     3.72731058    -5.80195313
H      -2.42624099     3.62984352    -5.80645963
H      -1.63355130     5.19631379    -5.48568024
17 
# or17: geometry number 7. N3-H14 distance: 4.5 
C      -0.20613796    -0.16696175     2.19051385
C      -1.61590678     0.38647098     2.11895624
N      -1.71051283     1.73638174     2.28707432
O      -2.59721551    -0.32693584     2.04531378
H      -2.62684762     2.15144920     2.31935607
H      -0.90377808     2.33212237     2.31942608
H      -0.20116591    -1.01555863     2.87302346
H       0.07089935    -0.53646305     1.20170770
H       0.53504505     0.56418134     2.51408655
C      -1.59698313     4.05906312    -4.83977426
C      -1.58396693     3.75714423    -3.36881345
O      -1.51071741     2.42315939    -3.13519812
O      -1.63086208     4.56538098    -2.47936122
H      -1.50659642     2.30601489    -2.17206642
H      -0.69338073     3.66401801    -5.30649304
H      -2.44889837     3.56655095    -5.31099954
H      -1.65620868     5.13302122    -4.99022015
17 
# or17: geometry number 8. N3-H14 distance: 4 
C      -0.20613796    -0.16696175     2.19051385
C      -1.61590678     0.38647098     2.11895624
N      -1.71051283     1.73638174     2.28707432
O      -2.59721551    -0.32693584     2.04531378
H      -2.62684762     2.15144920     2.31935607
H      -0.90377808     2.33212237     2.31942608
H      -0.20116591    -1.01555863     2.87302346
H       0.07089935    -0.53646305     1.20170770
H       0.53504505     0.56418134     2.51408655
C      -1.61964051     3.99577054    -4.34431418
C      -1.60662431     3.69385165    -2.87335337
O      -1.53337479     2.35986681    -2.63973804
O      -1.65351946     4.50208840    -1.98390114
H      -1.52925380     2.24272231    -1.67660634
H      -0.71603811     3.60072543    -4.81103296
H      -2.47155575     3.50325837    -4.81553946
H      -1.67886606     5.06972864    -4.49476007
17 
# or17: geometry number 9. N3-H14 distance: 3.7 
C      -0.20613796    -0.16696175     2.19051385
C      -1.61590678     0.38647098     2.11895624
N      -1.71051283     1.73638174     2.28707432
O      -2.59721551    -0.32693584     2.04531378
H      -2.62684762     2.15144920     2.31935607
H      -0.90377808     2.33212237     2.31942608
H      -0.20116591    -1.01555863     2.87302346
H       0.07089935    -0.53646305     1.20170770
H       0.53504505     0.56418134     2.51408655
C      -1.63323494     3.95779500    -4.04703813
C      -1.62021874     3.65587611    -2.57607732
O      -1.54696922     2.32189127    -2.34246199
O      -1.66711389     4.46411286    -1.68662509
H      -1.54284823     2.20474677    -1.37933029
H      -0.72963254     3.56274989    -4.51375691
H      -2.48515018     3.46528283    -4.51826341
H      -1.69246049     5.03175310    -4.19748402
17 
# or17: geometry number 10. N3-H14 distance: 3.4 
C      -0.20613796    -0.16696175     2.19051385
C      -1.61590678     0.38647098     2.11895624
N      -1.71051283     1.73638174     2.28707432
O      -2.59721551    -0.32693584     2.04531378
H      -2.62684762     2.15144920     2.31935607
H      -0.90377808     2.33212237     2.31942608
H      -0.20116591    -1.01555863     2.87302346
H       0.07089935    -0.53646305     1.20170770
H       0.53504505     0.56418134     2.51408655
C      -1.64682937     3.91981946    -3.74976208
C      -1.63381317     3.61790057    -2.27880127
O      -1.56056365     2.28391573    -2.04518594
O      -1.68070832     4.42613732    -1.38934904
H      -1.55644266     2.16677123    -1.08205424
H      -0.74322697     3.52477435    -4.21648086
H      -2.49874461     3.42730729    -4.22098736
H      -1.70605492     4.99377756    -3.90020797
17 
# or17: geometry number 11. N3-H14 distance: 3.1 
C      -0.20613796    -0.16696175     2.19051385
C      -1.61590678     0.38647098     2.11895624
N      -1.71051283     1.73638174     2.28707432
O      -2.59721551    -0.32693584     2.04531378
H      -2.62684762     2.15144920     2.31935607
H      -0.90377808     2.33212237     2.31942608
H      -0.20116591    -1.01555863     2.87302346
H       0.07089935    -0.53646305     1.20170770
H       0.53504505     0.56418134     2.51408655
C      -1.66042379     3.88184391    -3.45248603
C      -1.64740759     3.57992502    -1.98152522
O      -1.57415807     2.24594018    -1.74790989
O      -1.69430274     4.38816177    -1.09207299
H      -1.57003708     2.12879568    -0.78477819
H      -0.75682139     3.48679880    -3.91920481
H      -2.51233903     3.38933174    -3.92371131
H      -1.71964934     4.95580201    -3.60293192
17 
# or17: geometry number 12. N3-H14 distance: 2.9 
C      -0.20613796    -0.16696175     2.19051385
C      -1.61590678     0.38647098     2.11895624
N      -1.71051283     1.73638174     2.28707432
O      -2.59721551    -0.32693584     2.04531378
H      -2.62684762     2.15144920     2.31935607
H      -0.90377808     2.33212237     2.31942608
H      -0.20116591    -1.01555863     2.87302346
H       0.07089935    -0.53646305     1.20170770
H       0.53504505     0.56418134     2.51408655
C      -1.66948674     3.85652689    -3.25430200
C      -1.65647054     3.55460800    -1.78334119
O      -1.58322102     2.22062316    -1.54972586
O      -1.70336569     4.36284475    -0.89388896
H      -1.57910003     2.10347866    -0.58659416
H      -0.76588434     3.46148178    -3.72102078
H      -2.52140198     3.36401472    -3.72552728
H      -1.72871229     4.93048499    -3.40474789
17 
# or17: geometry number 13. N3-H14 distance: 2.7 
C      -0.20613796    -0.16696175     2.19051385
C      -1.61590678     0.38647098     2.11895624
N      -1.71051283     1.73638174     2.28707432
O      -2.59721551    -0.32693584     2.04531378
H      -2.62684762     2.15144920     2.31935607
H      -0.90377808     2.33212237     2.31942608
H      -0.20116591    -1.01555863     2.87302346
H       0.07089935    -0.53646305     1.20170770
H       0.53504505     0.56418134     2.51408655
C      -1.67854970     3.83120986    -3.05611797
C      -1.66553350     3.52929097    -1.58515716
O      -1.59228398     2.19530613    -1.35154183
O      -1.71242865     4.33752772    -0.69570493
H      -1.58816299     2.07816163    -0.38841013
H      -0.77494730     3.43616475    -3.52283675
H      -2.53046494     3.33869769    -3.52734325
H      -1.73777525     4.90516796    -3.20656386
17 
# or17: geometry number 14. N3-H14 distance: 2.5 
C      -0.20613796    -0.16696175     2.19051385
C      -1.61590678     0.38647098     2.11895624
N      -1.71051283     1.73638174     2.28707432
O      -2.59721551    -0.32693584     2.04531378
H      -2.62684762     2.15144920     2.31935607
H      -0.90377808     2.33212237     2.31942608
H      -0.20116591    -1.01555863     2.87302346
H       0.07089935    -0.53646305     1.20170770
H       0.53504505     0.56418134     2.51408655
C      -1.68761265     3.80589283    -2.85793393
C      -1.67459645     3.50397394    -1.38697312
O      -1.60134693     2.16998910    -1.15335779
O      -1.72149160     4.31221069    -0.49752089
H      -1.59722594     2.05284460    -0.19022609
H      -0.78401025     3.41084772    -3.32465271
H      -2.53952789     3.31338066    -3.32915921
H      -1.74683820     4.87985093    -3.00837982
17 
# or17: geometry number 15. N3-H14 distance: 2.4 
C      -0.20613796    -0.16696175     2.19051385
C      -1.61590678     0.38647098     2.11895624
N      -1.71051283     1.73638174     2.28707432
O      -2.59721551    -0.32693584     2.04531378
H      -2.62684762     2.15144920     2.31935607
H      -0.90377808     2.33212237     2.31942608
H      -0.20116591    -1.01555863     2.87302346
H       0.07089935    -0.53646305     1.20170770
H       0.53504505     0.56418134     2.51408655
C      -1.69214412     3.79323431    -2.75884192
C      -1.67912792     3.49131542    -1.28788111
O      -1.60587840     2.15733058    -1.05426578
O      -1.72602307     4.29955217    -0.39842888
H      -1.60175741     2.04018608    -0.09113408
H      -0.78854172     3.39818920    -3.22556070
H      -2.54405936     3.30072214    -3.23006720
H      -1.75136967     4.86719241    -2.90928781
17 
# or17: geometry number 16. N3-H14 distance: 2.3 
C      -0.20613796    -0.16696175     2.19051385
C      -1.61590678     0.38647098     2.11895624
N      -1.71051283     1.73638174     2.28707432
O      -2.59721551    -0.32693584     2.04531378
H      -2.62684762     2.15144920     2.31935607
H      -0.90377808     2.33212237     2.31942608
H      -0.20116591    -1.01555863     2.87302346
H       0.07089935    -0.53646305     1.20170770
H       0.53504505     0.56418134     2.51408655
C      -1.69667560     3.78057580    -2.65974990
C      -1.68365940     3.47865691    -1.18878909
O      -1.61040988     2.14467207    -0.95517376
O      -1.73055455     4.28689366    -0.29933686
H      -1.60628889     2.02752757     0.00795794
H      -0.79307320     3.38553069    -3.12646868
H      -2.54859084     3.28806363    -3.13097518
H      -1.75590115     4.85453390    -2.81019579
17 
# or17: geometry number 17. N3-H14 distance: 2.2 
C      -0.20613796    -0.16696175     2.19051385
C      -1.61590678     0.38647098     2.11895624
N      -1.71051283     1.73638174     2.28707432
O      -2.59721551    -0.32693584     2.04531378
H      -2.62684762     2.15144920     2.31935607
H      -0.90377808     2.33212237     2.31942608
H      -0.20116591    -1.01555863     2.87302346
H       0.07089935    -0.53646305     1.20170770
H       0.53504505     0.56418134     2.51408655
C      -1.70120707     3.76791729    -2.56065788
C      -1.68819087     3.46599840    -1.08969707
O      -1.61494135     2.13201356    -0.85608174
O      -1.73508602     4.27423515    -0.20024484
H      -1.61082036     2.01486906     0.10704996
H      -0.79760467     3.37287218    -3.02737666
H      -2.55312231     3.27540512    -3.03188316
H      -1.76043262     4.84187539    -2.71110377
17 
# or17: geometry number 18. N3-H14 distance: 2.1 
C      -0.20613796    -0.16696175     2.19051385
C      -1.61590678     0.38647098     2.11895624
N      -1.71051283     1.73638174     2.28707432
O      -2.59721551    -0.32693584     2.04531378
H      -2.62684762     2.15144920     2.31935607
H      -0.90377808     2.33212237     2.31942608
H      -0.20116591    -1.01555863     2.87302346
H       0.07089935    -0.53646305     1.20170770
H       0.53504505     0.56418134     2.51408655
C      -1.70573855     3.75525877    -2.46156587
C      -1.69272235     3.45333988    -0.99060506
O      -1.61947283     2.11935504    -0.75698973
O      -1.73961750     4.26157663    -0.10115283
H      -1.61535184     2.00221054     0.20614197
H      -0.80213615     3.36021366    -2.92828465
H      -2.55765379     3.26274660    -2.93279115
H      -1.76496410     4.82921687    -2.61201176
17 
# or17: geometry number 19. N3-H14 distance: 2.0 
C      -0.20613796    -0.16696175     2.19051385
C      -1.61590678     0.38647098     2.11895624
N      -1.71051283     1.73638174     2.28707432
O      -2.59721551    -0.32693584     2.04531378
H      -2.62684762     2.15144920     2.31935607
H      -0.90377808     2.33212237     2.31942608
H      -0.20116591    -1.01555863     2.87302346
H       0.07089935    -0.53646305     1.20170770
H       0.53504505     0.56418134     2.51408655
C      -1.71027003     3.74260026    -2.36247385
C      -1.69725383     3.44068137    -0.89151304
O      -1.62400431     2.10669653    -0.65789771
O      -1.74414898     4.24891812    -0.00206081
H      -1.61988332     1.98955203     0.30523399
H      -0.80666763     3.34755515    -2.82919263
H      -2.56218527     3.25008809    -2.83369913
H      -1.76949558     4.81655836    -2.51291974
17 
# or17: geometry number 20. N3-H14 distance: 1.9 
C      -0.20613796    -0.16696175     2.19051385
C      -1.61590678     0.38647098     2.11895624
N      -1.71051283     1.73638174     2.28707432
O      -2.59721551    -0.32693584     2.04531378
H      -2.62684762     2.15144920     2.31935607
H      -0.90377808     2.33212237     2.31942608
H      -0.20116591    -1.01555863     2.87302346
H       0.07089935    -0.53646305     1.20170770
H       0.53504505     0.56418134     2.51408655
C      -1.71480150     3.72994174    -2.26338183
C      -1.70178530     3.42802285    -0.79242102
O      -1.62853578     2.09403801    -0.55880569
O      -1.74868045     4.23625960     0.09703121
H      -1.62441479     1.97689351     0.40432601
H      -0.81119910     3.33489663    -2.73010061
H      -2.56671674     3.23742957    -2.73460711
H      -1.77402705     4.80389984    -2.41382772
17 
# or17: geometry number 21. N3-H14 distance: 1.8 
C      -0.20613796    -0.16696175     2.19051385
C      -1.61590678     0.38647098     2.11895624
N      -1.71051283     1.73638174     2.28707432
O      -2.59721551    -0.32693584     2.04531378
H      -2.62684762     2.15144920     2.31935607
H      -0.90377808     2.33212237     2.31942608
H      -0.20116591    -1.01555863     2.87302346
H       0.07089935    -0.53646305     1.20170770
H       0.53504505     0.56418134     2.51408655
C      -1.71933298     3.71728323    -2.16428982
C      -1.70631678     3.41536434    -0.69332901
O      -1.63306726     2.08137950    -0.45971368
O      -1.75321193     4.22360109     0.19612322
H      -1.62894627     1.96423500     0.50341802
H      -0.81573058     3.32223812    -2.63100860
H      -2.57124822     3.22477106    -2.63551510
H      -1.77855853     4.79124133    -2.31473571
17 
# or17: geometry number 22. N3-H14 distance: 1.75 
C      -0.20613796    -0.16696175     2.19051385
C      -1.61590678     0.38647098     2.11895624
N      -1.71051283     1.73638174     2.28707432
O      -2.59721551    -0.32693584     2.04531378
H      -2.62684762     2.15144920     2.31935607
H      -0.90377808     2.33212237     2.31942608
H      -0.20116591    -1.01555863     2.87302346
H       0.07089935    -0.53646305     1.20170770
H       0.53504505     0.56418134     2.51408655
C      -1.72159872     3.71095397    -2.11474381
C      -1.70858252     3.40903508    -0.64378300
O      -1.63533300     2.07505024    -0.41016767
O      -1.75547767     4.21727183     0.24566923
H      -1.63121201     1.95790574     0.55296403
H      -0.81799632     3.31590886    -2.58146259
H      -2.57351396     3.21844180    -2.58596909
H      -1.78082427     4.78491207    -2.26518970
17 
# or17: geometry number 23. N3-H14 distance: 1.7 
C      -0.20613796    -0.16696175     2.19051385
C      -1.61590678     0.38647098     2.11895624
N      -1.71051283     1.73638174     2.28707432
O      -2.59721551    -0.32693584     2.04531378
H      -2.62684762     2.15144920     2.31935607
H      -0.90377808     2.33212237     2.31942608
H      -0.20116591    -1.01555863     2.87302346
H       0.07089935    -0.53646305     1.20170770
H       0.53504505     0.56418134     2.51408655
C      -1.72386445     3.70462471    -2.06519780
C      -1.71084825     3.40270582    -0.59423699
O      -1.63759873     2.06872098    -0.36062166
O      -1.75774340     4.21094257     0.29521524
H      -1.63347774     1.95157648     0.60251004
H      -0.82026205     3.30957960    -2.53191658
H      -2.57577969     3.21211254    -2.53642308
H      -1.78309000     4.77858281    -2.21564369
17 
# or17: geometry number 24. N3-H14 distance: 1.65 
C      -0.20613796    -0.16696175     2.19051385
C      -1.61590678     0.38647098     2.11895624
N      -1.71051283     1.73638174     2.28707432
O      -2.59721551    -0.32693584     2.04531378
H      -2.62684762     2.15144920     2.31935607
H      -0.90377808     2.33212237     2.31942608
H      -0.20116591    -1.01555863     2.87302346
H       0.07089935    -0.53646305     1.20170770
H       0.53504505     0.56418134     2.51408655
C      -1.72613019     3.69829546    -2.01565179
C      -1.71311399     3.39637657    -0.54469098
O      -1.63986447     2.06239173    -0.31107565
O      -1.76000914     4.20461332     0.34476125
H      -1.63574348     1.94524723     0.65205605
H      -0.82252779     3.30325035    -2.48237057
H      -2.57804543     3.20578329    -2.48687707
H      -1.78535574     4.77225356    -2.16609768
17 
# or17: geometry number 25. N3-H14 distance: 1.6 
C      -0.20613796    -0.16696175     2.19051385
C      -1.61590678     0.38647098     2.11895624
N      -1.71051283     1.73638174     2.28707432
O      -2.59721551    -0.32693584     2.04531378
H      -2.62684762     2.15144920     2.31935607
H      -0.90377808     2.33212237     2.31942608
H      -0.20116591    -1.01555863     2.87302346
H       0.07089935    -0.53646305     1.20170770
H       0.53504505     0.56418134     2.51408655
C      -1.72839593     3.69196620    -1.96610578
C      -1.71537973     3.39004731    -0.49514497
O      -1.64213021     2.05606247    -0.26152964
O      -1.76227488     4.19828406     0.39430726
H      -1.63800922     1.93891797     0.70160206
H      -0.82479353     3.29692109    -2.43282456
H      -2.58031117     3.19945403    -2.43733106
H      -1.78762148     4.76592430    -2.11655167
17 
# or17: geometry number 26. N3-H14 distance: 1.55 
C      -0.20613796    -0.16696175     2.19051385
C      -1.61590678     0.38647098     2.11895624
N      -1.71051283     1.73638174     2.28707432
O      -2.59721551    -0.32693584     2.04531378
H      -2.62684762     2.15144920     2.31935607
H      -0.90377808     2.33212237     2.31942608
H      -0.20116591    -1.01555863     2.87302346
H       0.07089935    -0.53646305     1.20170770
H       0.53504505     0.56418134     2.51408655
C      -1.73066167     3.68563694    -1.91655978
C      -1.71764547     3.38371805    -0.44559897
O      -1.64439595     2.04973321    -0.21198364
O      -1.76454062     4.19195480     0.44385326
H      -1.64027496     1.93258871     0.75114806
H      -0.82705927     3.29059183    -2.38327856
H      -2.58257691     3.19312477    -2.38778506
H      -1.78988722     4.75959504    -2.06700567
17 
# or17: geometry number 27. N3-H14 distance: 1.5 
C      -0.20613796    -0.16696175     2.19051385
C      -1.61590678     0.38647098     2.11895624
N      -1.71051283     1.73638174     2.28707432
O      -2.59721551    -0.32693584     2.04531378
H      -2.62684762     2.15144920     2.31935607
H      -0.90377808     2.33212237     2.31942608
H      -0.20116591    -1.01555863     2.87302346
H       0.07089935    -0.53646305     1.20170770
H       0.53504505     0.56418134     2.51408655
C      -1.73292740     3.67930769    -1.86701377
C      -1.71991120     3.37738880    -0.39605296
O      -1.64666168     2.04340396    -0.16243763
O      -1.76680635     4.18562555     0.49339927
H      -1.64254069     1.92625946     0.80069407
H      -0.82932500     3.28426258    -2.33373255
H      -2.58484264     3.18679552    -2.33823905
H      -1.79215295     4.75326579    -2.01745966
17 
# or17: geometry number 28. N3-H14 distance: 1.45 
C      -0.20613796    -0.16696175     2.19051385
C      -1.61590678     0.38647098     2.11895624
N      -1.71051283     1.73638174     2.28707432
O      -2.59721551    -0.32693584     2.04531378
H      -2.62684762     2.15144920     2.31935607
H      -0.90377808     2.33212237     2.31942608
H      -0.20116591    -1.01555863     2.87302346
H       0.07089935    -0.53646305     1.20170770
H       0.53504505     0.56418134     2.51408655
C      -1.73519314     3.67297843    -1.81746776
C      -1.72217694     3.37105954    -0.34650695
O      -1.64892742     2.03707470    -0.11289162
O      -1.76907209     4.17929629     0.54294528
H      -1.64480643     1.91993020     0.85024008
H      -0.83159074     3.27793332    -2.28418654
H      -2.58710838     3.18046626    -2.28869304
H      -1.79441869     4.74693653    -1.96791365
17 
# or17: geometry number 29. N3-H14 distance: 1.4 
C      -0.20613796    -0.16696175     2.19051385
C      -1.61590678     0.38647098     2.11895624
N      -1.71051283     1.73638174     2.28707432
O      -2.59721551    -0.32693584     2.04531378
H      -2.62684762     2.15144920     2.31935607
H      -0.90377808     2.33212237     2.31942608
H      -0.20116591    -1.01555863     2.87302346
H       0.07089935    -0.53646305     1.20170770
H       0.53504505     0.56418134     2.51408655
C      -1.73745888     3.66664917    -1.76792175
C      -1.72444268     3.36473028    -0.29696094
O      -1.65119316     2.03074544    -0.06334561
O      -1.77133783     4.17296703     0.59249129
H      -1.64707217     1.91360094     0.89978609
H      -0.83385648     3.27160406    -2.23464053
H      -2.58937412     3.17413700    -2.23914703
H      -1.79668443     4.74060727    -1.91836764
17 
# or17: geometry number 30. N3-H14 distance: 1.35 
C      -0.20613796    -0.16696175     2.19051385
C      -1.61590678     0.38647098     2.11895624
N      -1.71051283     1.73638174     2.28707432
O      -2.59721551    -0.32693584     2.04531378
H      -2.62684762     2.15144920     2.31935607
H      -0.90377808     2.33212237     2.31942608
H      -0.20116591    -1.01555863     2.87302346
H       0.07089935    -0.53646305     1.20170770
H       0.53504505     0.56418134     2.51408655
C      -1.73972462     3.66031991    -1.71837574
C      -1.72670842     3.35840102    -0.24741493
O      -1.65345890     2.02441618    -0.01379960
O      -1.77360357     4.16663777     0.64203730
H      -1.64933791     1.90727168     0.94933210
H      -0.83612222     3.26527480    -2.18509452
H      -2.59163986     3.16780774    -2.18960102
H      -1.79895017     4.73427801    -1.86882163
17 
# or17: geometry number 31. N3-H14 distance: 1.3 
C      -0.20613796    -0.16696175     2.19051385
C      -1.61590678     0.38647098     2.11895624
N      -1.71051283     1.73638174     2.28707432
O      -2.59721551    -0.32693584     2.04531378
H      -2.62684762     2.15144920     2.31935607
H      -0.90377808     2.33212237     2.31942608
H      -0.20116591    -1.01555863     2.87302346
H       0.07089935    -0.53646305     1.20170770
H       0.53504505     0.56418134     2.51408655
C      -1.74199036     3.65399066    -1.66882974
C      -1.72897416     3.35207177    -0.19786893
O      -1.65572464     2.01808693     0.03574640
O      -1.77586931     4.16030852     0.69158330
H      -1.65160365     1.90094243     0.99887810
H      -0.83838796     3.25894555    -2.13554852
H      -2.59390560     3.16147849    -2.14005502
H      -1.80121591     4.72794876    -1.81927563
