17 
# or1: geometry number 1. C1-C10 distance: 10 
C      -2.24974744     1.28668043     1.75804609
C      -0.90982781     1.17039903     1.05808150
N      -0.50654377    -0.09835326     0.76294994
O      -0.24299368     2.14496095     0.77015676
H       0.35814685    -0.22138042     0.26278294
H      -1.06730175    -0.90344947     0.97305723
H      -2.14582332     1.97826745     2.59283224
H      -2.96867650     1.71776331     1.05924213
H      -2.63797892     0.33467772     2.12079801
C     -11.25242522     2.43953456     5.95598845
C     -12.58984915     2.62208528     6.61403294
O     -13.07733660     1.44729607     7.08486570
O     -13.18659179     3.65990649     6.72977611
H     -13.93578067     1.64221961     7.49283765
H     -10.54291510     2.01934205     6.67042392
H     -11.34007455     1.73235496     5.12979497
H     -10.89259544     3.39721089     5.59142542
17 
# or1: geometry number 2. C1-C10 distance: 9 
C      -2.24974744     1.28668043     1.75804609
C      -0.90982781     1.17039903     1.05808150
N      -0.50654377    -0.09835326     0.76294994
O      -0.24299368     2.14496095     0.77015676
H       0.35814685    -0.22138042     0.26278294
H      -1.06730175    -0.90344947     0.97305723
H      -2.14582332     1.97826745     2.59283224
H      -2.96867650     1.71776331     1.05924213
H      -2.63797892     0.33467772     2.12079801
C     -10.35215744     2.32424915     5.53619422
C     -11.68958137     2.50679987     6.19423871
O     -12.17706882     1.33201066     6.66507147
O     -12.28632401     3.54462108     6.30998188
H     -13.03551289     1.52693420     7.07304342
H      -9.64264732     1.90405664     6.25062969
H     -10.43980677     1.61706955     4.71000074
H      -9.99232766     3.28192548     5.17163119
17 
# or1: geometry number 3. C1-C10 distance: 8 
C      -2.24974744     1.28668043     1.75804609
C      -0.90982781     1.17039903     1.05808150
N      -0.50654377    -0.09835326     0.76294994
O      -0.24299368     2.14496095     0.77015676
H       0.35814685    -0.22138042     0.26278294
H      -1.06730175    -0.90344947     0.97305723
H      -2.14582332     1.97826745     2.59283224
H      -2.96867650     1.71776331     1.05924213
H      -2.63797892     0.33467772     2.12079801
C      -9.45188967     2.20896373     5.11639998
C     -10.78931360     2.39151445     5.77444447
O     -11.27680105     1.21672524     6.24527723
O     -11.38605624     3.42933566     5.89018764
H     -12.13524512     1.41164878     6.65324918
H      -8.74237955     1.78877122     5.83083545
H      -9.53953900     1.50178413     4.29020650
H      -9.09205989     3.16664006     4.75183695
17 
# or1: geometry number 4. C1-C10 distance: 7 
C      -2.24974744     1.28668043     1.75804609
C      -0.90982781     1.17039903     1.05808150
N      -0.50654377    -0.09835326     0.76294994
O      -0.24299368     2.14496095     0.77015676
H       0.35814685    -0.22138042     0.26278294
H      -1.06730175    -0.90344947     0.97305723
H      -2.14582332     1.97826745     2.59283224
H      -2.96867650     1.71776331     1.05924213
H      -2.63797892     0.33467772     2.12079801
C      -8.55162189     2.09367832     4.69660575
C      -9.88904582     2.27622904     5.35465024
O     -10.37653327     1.10143983     5.82548300
O     -10.48578846     3.31405025     5.47039341
H     -11.23497734     1.29636337     6.23345495
H      -7.84211177     1.67348581     5.41104122
H      -8.63927122     1.38649872     3.87041227
H      -8.19179211     3.05135465     4.33204272
17 
# or1: geometry number 5. C1-C10 distance: 6 
C      -2.24974744     1.28668043     1.75804609
C      -0.90982781     1.17039903     1.05808150
N      -0.50654377    -0.09835326     0.76294994
O      -0.24299368     2.14496095     0.77015676
H       0.35814685    -0.22138042     0.26278294
H      -1.06730175    -0.90344947     0.97305723
H      -2.14582332     1.97826745     2.59283224
H      -2.96867650     1.71776331     1.05924213
H      -2.63797892     0.33467772     2.12079801
C      -7.65135411     1.97839291     4.27681151
C      -8.98877804     2.16094363     4.93485600
O      -9.47626549     0.98615442     5.40568876
O      -9.58552068     3.19876484     5.05059917
H     -10.33470956     1.18107796     5.81366071
H      -6.94184399     1.55820040     4.99124698
H      -7.73900344     1.27121331     3.45061803
H      -7.29152433     2.93606924     3.91224848
17 
# or1: geometry number 6. C1-C10 distance: 5 
C      -2.24974744     1.28668043     1.75804609
C      -0.90982781     1.17039903     1.05808150
N      -0.50654377    -0.09835326     0.76294994
O      -0.24299368     2.14496095     0.77015676
H       0.35814685    -0.22138042     0.26278294
H      -1.06730175    -0.90344947     0.97305723
H      -2.14582332     1.97826745     2.59283224
H      -2.96867650     1.71776331     1.05924213
H      -2.63797892     0.33467772     2.12079801
C      -6.75108633     1.86310750     3.85701727
C      -8.08851026     2.04565822     4.51506176
O      -8.57599771     0.87086901     4.98589452
O      -8.68525290     3.08347943     4.63080493
H      -9.43444178     1.06579255     5.39386647
H      -6.04157621     1.44291499     4.57145274
H      -6.83873566     1.15592790     3.03082379
H      -6.39125655     2.82078383     3.49245424
17 
# or1: geometry number 7. C1-C10 distance: 4.7 
C      -2.24974744     1.28668043     1.75804609
C      -0.90982781     1.17039903     1.05808150
N      -0.50654377    -0.09835326     0.76294994
O      -0.24299368     2.14496095     0.77015676
H       0.35814685    -0.22138042     0.26278294
H      -1.06730175    -0.90344947     0.97305723
H      -2.14582332     1.97826745     2.59283224
H      -2.96867650     1.71776331     1.05924213
H      -2.63797892     0.33467772     2.12079801
C      -6.48100600     1.82852187     3.73107900
C      -7.81842993     2.01107259     4.38912349
O      -8.30591738     0.83628338     4.85995625
O      -8.41517257     3.04889380     4.50486666
H      -9.16436145     1.03120692     5.26792820
H      -5.77149588     1.40832936     4.44551447
H      -6.56865533     1.12134227     2.90488552
H      -6.12117622     2.78619820     3.36651597
17 
# or1: geometry number 8. C1-C10 distance: 4.4 
C      -2.24974744     1.28668043     1.75804609
C      -0.90982781     1.17039903     1.05808150
N      -0.50654377    -0.09835326     0.76294994
O      -0.24299368     2.14496095     0.77015676
H       0.35814685    -0.22138042     0.26278294
H      -1.06730175    -0.90344947     0.97305723
H      -2.14582332     1.97826745     2.59283224
H      -2.96867650     1.71776331     1.05924213
H      -2.63797892     0.33467772     2.12079801
C      -6.21092566     1.79393625     3.60514073
C      -7.54834959     1.97648697     4.26318522
O      -8.03583704     0.80169776     4.73401798
O      -8.14509223     3.01430818     4.37892839
H      -8.89428111     0.99662130     5.14198993
H      -5.50141554     1.37374374     4.31957620
H      -6.29857499     1.08675665     2.77894725
H      -5.85109588     2.75161258     3.24057770
17 
# or1: geometry number 9. C1-C10 distance: 4.2 
C      -2.24974744     1.28668043     1.75804609
C      -0.90982781     1.17039903     1.05808150
N      -0.50654377    -0.09835326     0.76294994
O      -0.24299368     2.14496095     0.77015676
H       0.35814685    -0.22138042     0.26278294
H      -1.06730175    -0.90344947     0.97305723
H      -2.14582332     1.97826745     2.59283224
H      -2.96867650     1.71776331     1.05924213
H      -2.63797892     0.33467772     2.12079801
C      -6.03087211     1.77087916     3.52118188
C      -7.36829604     1.95342988     4.17922637
O      -7.85578349     0.77864067     4.65005913
O      -7.96503868     2.99125109     4.29496954
H      -8.71422756     0.97356421     5.05803108
H      -5.32136199     1.35068665     4.23561735
H      -6.11852144     1.06369956     2.69498840
H      -5.67104233     2.72855549     3.15661885
17 
# or1: geometry number 10. C1-C10 distance: 4 
C      -2.24974744     1.28668043     1.75804609
C      -0.90982781     1.17039903     1.05808150
N      -0.50654377    -0.09835326     0.76294994
O      -0.24299368     2.14496095     0.77015676
H       0.35814685    -0.22138042     0.26278294
H      -1.06730175    -0.90344947     0.97305723
H      -2.14582332     1.97826745     2.59283224
H      -2.96867650     1.71776331     1.05924213
H      -2.63797892     0.33467772     2.12079801
C      -5.85081855     1.74782208     3.43722304
C      -7.18824248     1.93037280     4.09526753
O      -7.67572993     0.75558359     4.56610029
O      -7.78498512     2.96819401     4.21101070
H      -8.53417400     0.95050713     4.97407224
H      -5.14130843     1.32762957     4.15165851
H      -5.93846788     1.04064248     2.61102956
H      -5.49098877     2.70549841     3.07266001
17 
# or1: geometry number 11. C1-C10 distance: 3.8 
C      -2.24974744     1.28668043     1.75804609
C      -0.90982781     1.17039903     1.05808150
N      -0.50654377    -0.09835326     0.76294994
O      -0.24299368     2.14496095     0.77015676
H       0.35814685    -0.22138042     0.26278294
H      -1.06730175    -0.90344947     0.97305723
H      -2.14582332     1.97826745     2.59283224
H      -2.96867650     1.71776331     1.05924213
H      -2.63797892     0.33467772     2.12079801
C      -5.67076500     1.72476500     3.35326419
C      -7.00818893     1.90731572     4.01130868
O      -7.49567638     0.73252651     4.48214144
O      -7.60493157     2.94513693     4.12705185
H      -8.35412045     0.92745005     4.89011339
H      -4.96125488     1.30457249     4.06769966
H      -5.75841433     1.01758540     2.52707071
H      -5.31093522     2.68244133     2.98870116
17 
# or1: geometry number 12. C1-C10 distance: 3.7 
C      -2.24974744     1.28668043     1.75804609
C      -0.90982781     1.17039903     1.05808150
N      -0.50654377    -0.09835326     0.76294994
O      -0.24299368     2.14496095     0.77015676
H       0.35814685    -0.22138042     0.26278294
H      -1.06730175    -0.90344947     0.97305723
H      -2.14582332     1.97826745     2.59283224
H      -2.96867650     1.71776331     1.05924213
H      -2.63797892     0.33467772     2.12079801
C      -5.58073822     1.71323646     3.31128477
C      -6.91816215     1.89578718     3.96932926
O      -7.40564960     0.72099797     4.44016202
O      -7.51490479     2.93360839     4.08507243
H      -8.26409367     0.91592151     4.84813397
H      -4.87122810     1.29304395     4.02572024
H      -5.66838755     1.00605686     2.48509129
H      -5.22090844     2.67091279     2.94672174
17 
# or1: geometry number 13. C1-C10 distance: 3.6 
C      -2.24974744     1.28668043     1.75804609
C      -0.90982781     1.17039903     1.05808150
N      -0.50654377    -0.09835326     0.76294994
O      -0.24299368     2.14496095     0.77015676
H       0.35814685    -0.22138042     0.26278294
H      -1.06730175    -0.90344947     0.97305723
H      -2.14582332     1.97826745     2.59283224
H      -2.96867650     1.71776331     1.05924213
H      -2.63797892     0.33467772     2.12079801
C      -5.49071144     1.70170792     3.26930534
C      -6.82813537     1.88425864     3.92734983
O      -7.31562282     0.70946943     4.39818259
O      -7.42487801     2.92207985     4.04309300
H      -8.17406689     0.90439297     4.80615454
H      -4.78120132     1.28151541     3.98374081
H      -5.57836077     0.99452832     2.44311186
H      -5.13088166     2.65938425     2.90474231
17 
# or1: geometry number 14. C1-C10 distance: 3.5 
C      -2.24974744     1.28668043     1.75804609
C      -0.90982781     1.17039903     1.05808150
N      -0.50654377    -0.09835326     0.76294994
O      -0.24299368     2.14496095     0.77015676
H       0.35814685    -0.22138042     0.26278294
H      -1.06730175    -0.90344947     0.97305723
H      -2.14582332     1.97826745     2.59283224
H      -2.96867650     1.71776331     1.05924213
H      -2.63797892     0.33467772     2.12079801
C      -5.40068466     1.69017938     3.22732592
C      -6.73810859     1.87273010     3.88537041
O      -7.22559604     0.69794089     4.35620317
O      -7.33485123     2.91055131     4.00111358
H      -8.08404011     0.89286443     4.76417512
H      -4.69117454     1.26998687     3.94176139
H      -5.48833399     0.98299978     2.40113244
H      -5.04085488     2.64785571     2.86276289
17 
# or1: geometry number 15. C1-C10 distance: 3.4 
C      -2.24974744     1.28668043     1.75804609
C      -0.90982781     1.17039903     1.05808150
N      -0.50654377    -0.09835326     0.76294994
O      -0.24299368     2.14496095     0.77015676
H       0.35814685    -0.22138042     0.26278294
H      -1.06730175    -0.90344947     0.97305723
H      -2.14582332     1.97826745     2.59283224
H      -2.96867650     1.71776331     1.05924213
H      -2.63797892     0.33467772     2.12079801
C      -5.31065789     1.67865083     3.18534649
C      -6.64808182     1.86120155     3.84339098
O      -7.13556927     0.68641234     4.31422374
O      -7.24482446     2.89902276     3.95913415
H      -7.99401334     0.88133588     4.72219569
H      -4.60114777     1.25845832     3.89978196
H      -5.39830722     0.97147123     2.35915301
H      -4.95082811     2.63632716     2.82078346
17 
# or1: geometry number 16. C1-C10 distance: 3.3 
C      -2.24974744     1.28668043     1.75804609
C      -0.90982781     1.17039903     1.05808150
N      -0.50654377    -0.09835326     0.76294994
O      -0.24299368     2.14496095     0.77015676
H       0.35814685    -0.22138042     0.26278294
H      -1.06730175    -0.90344947     0.97305723
H      -2.14582332     1.97826745     2.59283224
H      -2.96867650     1.71776331     1.05924213
H      -2.63797892     0.33467772     2.12079801
C      -5.22063111     1.66712229     3.14336707
C      -6.55805504     1.84967301     3.80141156
O      -7.04554249     0.67488380     4.27224432
O      -7.15479768     2.88749422     3.91715473
H      -7.90398656     0.86980734     4.68021627
H      -4.51112099     1.24692978     3.85780254
H      -5.30828044     0.95994269     2.31717359
H      -4.86080133     2.62479862     2.77880404
17 
# or1: geometry number 17. C1-C10 distance: 3.2 
C      -2.24974744     1.28668043     1.75804609
C      -0.90982781     1.17039903     1.05808150
N      -0.50654377    -0.09835326     0.76294994
O      -0.24299368     2.14496095     0.77015676
H       0.35814685    -0.22138042     0.26278294
H      -1.06730175    -0.90344947     0.97305723
H      -2.14582332     1.97826745     2.59283224
H      -2.96867650     1.71776331     1.05924213
H      -2.63797892     0.33467772     2.12079801
C      -5.13060433     1.65559375     3.10138765
C      -6.46802826     1.83814447     3.75943214
O      -6.95551571     0.66335526     4.23026490
O      -7.06477090     2.87596568     3.87517531
H      -7.81395978     0.85827880     4.63823685
H      -4.42109421     1.23540124     3.81582312
H      -5.21825366     0.94841415     2.27519417
H      -4.77077455     2.61327008     2.73682462
17 
# or1: geometry number 18. C1-C10 distance: 3.1 
C      -2.24974744     1.28668043     1.75804609
C      -0.90982781     1.17039903     1.05808150
N      -0.50654377    -0.09835326     0.76294994
O      -0.24299368     2.14496095     0.77015676
H       0.35814685    -0.22138042     0.26278294
H      -1.06730175    -0.90344947     0.97305723
H      -2.14582332     1.97826745     2.59283224
H      -2.96867650     1.71776331     1.05924213
H      -2.63797892     0.33467772     2.12079801
C      -5.04057755     1.64406521     3.05940822
C      -6.37800148     1.82661593     3.71745271
O      -6.86548893     0.65182672     4.18828547
O      -6.97474412     2.86443714     3.83319588
H      -7.72393300     0.84675026     4.59625742
H      -4.33106743     1.22387270     3.77384369
H      -5.12822688     0.93688561     2.23321474
H      -4.68074777     2.60174154     2.69484519
17 
# or1: geometry number 19. C1-C10 distance: 3 
C      -2.24974744     1.28668043     1.75804609
C      -0.90982781     1.17039903     1.05808150
N      -0.50654377    -0.09835326     0.76294994
O      -0.24299368     2.14496095     0.77015676
H       0.35814685    -0.22138042     0.26278294
H      -1.06730175    -0.90344947     0.97305723
H      -2.14582332     1.97826745     2.59283224
H      -2.96867650     1.71776331     1.05924213
H      -2.63797892     0.33467772     2.12079801
C      -4.95055077     1.63253667     3.01742880
C      -6.28797470     1.81508739     3.67547329
O      -6.77546215     0.64029818     4.14630605
O      -6.88471734     2.85290860     3.79121646
H      -7.63390622     0.83522172     4.55427800
H      -4.24104065     1.21234416     3.73186427
H      -5.03820010     0.92535707     2.19123532
H      -4.59072099     2.59021300     2.65286577
17 
# or1: geometry number 20. C1-C10 distance: 2.9 
C      -2.24974744     1.28668043     1.75804609
C      -0.90982781     1.17039903     1.05808150
N      -0.50654377    -0.09835326     0.76294994
O      -0.24299368     2.14496095     0.77015676
H       0.35814685    -0.22138042     0.26278294
H      -1.06730175    -0.90344947     0.97305723
H      -2.14582332     1.97826745     2.59283224
H      -2.96867650     1.71776331     1.05924213
H      -2.63797892     0.33467772     2.12079801
C      -4.86052400     1.62100813     2.97544938
C      -6.19794793     1.80355885     3.63349387
O      -6.68543538     0.62876964     4.10432663
O      -6.79469057     2.84138006     3.74923704
H      -7.54387945     0.82369318     4.51229858
H      -4.15101388     1.20081562     3.68988485
H      -4.94817333     0.91382853     2.14925590
H      -4.50069422     2.57868446     2.61088635
17 
# or1: geometry number 21. C1-C10 distance: 2.85 
C      -2.24974744     1.28668043     1.75804609
C      -0.90982781     1.17039903     1.05808150
N      -0.50654377    -0.09835326     0.76294994
O      -0.24299368     2.14496095     0.77015676
H       0.35814685    -0.22138042     0.26278294
H      -1.06730175    -0.90344947     0.97305723
H      -2.14582332     1.97826745     2.59283224
H      -2.96867650     1.71776331     1.05924213
H      -2.63797892     0.33467772     2.12079801
C      -4.81551061     1.61524386     2.95445966
C      -6.15293454     1.79779458     3.61250415
O      -6.64042199     0.62300537     4.08333691
O      -6.74967718     2.83561579     3.72824732
H      -7.49886606     0.81792891     4.49130886
H      -4.10600049     1.19505135     3.66889513
H      -4.90315994     0.90806426     2.12826618
H      -4.45568083     2.57292019     2.58989663
17 
# or1: geometry number 22. C1-C10 distance: 2.8 
C      -2.24974744     1.28668043     1.75804609
C      -0.90982781     1.17039903     1.05808150
N      -0.50654377    -0.09835326     0.76294994
O      -0.24299368     2.14496095     0.77015676
H       0.35814685    -0.22138042     0.26278294
H      -1.06730175    -0.90344947     0.97305723
H      -2.14582332     1.97826745     2.59283224
H      -2.96867650     1.71776331     1.05924213
H      -2.63797892     0.33467772     2.12079801
C      -4.77049722     1.60947959     2.93346995
C      -6.10792115     1.79203031     3.59151444
O      -6.59540860     0.61724110     4.06234720
O      -6.70466379     2.82985152     3.70725761
H      -7.45385267     0.81216464     4.47031915
H      -4.06098710     1.18928708     3.64790542
H      -4.85814655     0.90229999     2.10727647
H      -4.41066744     2.56715592     2.56890692
17 
# or1: geometry number 23. C1-C10 distance: 2.75 
C      -2.24974744     1.28668043     1.75804609
C      -0.90982781     1.17039903     1.05808150
N      -0.50654377    -0.09835326     0.76294994
O      -0.24299368     2.14496095     0.77015676
H       0.35814685    -0.22138042     0.26278294
H      -1.06730175    -0.90344947     0.97305723
H      -2.14582332     1.97826745     2.59283224
H      -2.96867650     1.71776331     1.05924213
H      -2.63797892     0.33467772     2.12079801
C      -4.72548383     1.60371532     2.91248024
C      -6.06290776     1.78626604     3.57052473
O      -6.55039521     0.61147683     4.04135749
O      -6.65965040     2.82408725     3.68626790
H      -7.40883928     0.80640037     4.44932944
H      -4.01597371     1.18352281     3.62691571
H      -4.81313316     0.89653572     2.08628676
H      -4.36565405     2.56139165     2.54791721
17 
# or1: geometry number 24. C1-C10 distance: 2.7 
C      -2.24974744     1.28668043     1.75804609
C      -0.90982781     1.17039903     1.05808150
N      -0.50654377    -0.09835326     0.76294994
O      -0.24299368     2.14496095     0.77015676
H       0.35814685    -0.22138042     0.26278294
H      -1.06730175    -0.90344947     0.97305723
H      -2.14582332     1.97826745     2.59283224
H      -2.96867650     1.71776331     1.05924213
H      -2.63797892     0.33467772     2.12079801
C      -4.68047044     1.59795105     2.89149053
C      -6.01789437     1.78050177     3.54953502
O      -6.50538182     0.60571256     4.02036778
O      -6.61463701     2.81832298     3.66527819
H      -7.36382589     0.80063610     4.42833973
H      -3.97096032     1.17775854     3.60592600
H      -4.76811977     0.89077145     2.06529705
H      -4.32064066     2.55562738     2.52692750
17 
# or1: geometry number 25. C1-C10 distance: 2.65 
C      -2.24974744     1.28668043     1.75804609
C      -0.90982781     1.17039903     1.05808150
N      -0.50654377    -0.09835326     0.76294994
O      -0.24299368     2.14496095     0.77015676
H       0.35814685    -0.22138042     0.26278294
H      -1.06730175    -0.90344947     0.97305723
H      -2.14582332     1.97826745     2.59283224
H      -2.96867650     1.71776331     1.05924213
H      -2.63797892     0.33467772     2.12079801
C      -4.63545705     1.59218677     2.87050082
C      -5.97288098     1.77473749     3.52854531
O      -6.46036843     0.59994828     3.99937807
O      -6.56962362     2.81255870     3.64428848
H      -7.31881250     0.79487182     4.40735002
H      -3.92594693     1.17199426     3.58493629
H      -4.72310638     0.88500717     2.04430734
H      -4.27562727     2.54986310     2.50593779
17 
# or1: geometry number 26. C1-C10 distance: 2.6 
C      -2.24974744     1.28668043     1.75804609
C      -0.90982781     1.17039903     1.05808150
N      -0.50654377    -0.09835326     0.76294994
O      -0.24299368     2.14496095     0.77015676
H       0.35814685    -0.22138042     0.26278294
H      -1.06730175    -0.90344947     0.97305723
H      -2.14582332     1.97826745     2.59283224
H      -2.96867650     1.71776331     1.05924213
H      -2.63797892     0.33467772     2.12079801
C      -4.59044366     1.58642250     2.84951110
C      -5.92786759     1.76897322     3.50755559
O      -6.41535504     0.59418401     3.97838835
O      -6.52461023     2.80679443     3.62329876
H      -7.27379911     0.78910755     4.38636030
H      -3.88093354     1.16622999     3.56394657
H      -4.67809299     0.87924290     2.02331762
H      -4.23061388     2.54409883     2.48494807
17 
# or1: geometry number 27. C1-C10 distance: 2.55 
C      -2.24974744     1.28668043     1.75804609
C      -0.90982781     1.17039903     1.05808150
N      -0.50654377    -0.09835326     0.76294994
O      -0.24299368     2.14496095     0.77015676
H       0.35814685    -0.22138042     0.26278294
H      -1.06730175    -0.90344947     0.97305723
H      -2.14582332     1.97826745     2.59283224
H      -2.96867650     1.71776331     1.05924213
H      -2.63797892     0.33467772     2.12079801
C      -4.54543027     1.58065823     2.82852139
C      -5.88285420     1.76320895     3.48656588
O      -6.37034165     0.58841974     3.95739864
O      -6.47959684     2.80103016     3.60230905
H      -7.22878572     0.78334328     4.36537059
H      -3.83592015     1.16046572     3.54295686
H      -4.63307960     0.87347863     2.00232791
H      -4.18560049     2.53833456     2.46395836
17 
# or1: geometry number 28. C1-C10 distance: 2.5 
C      -2.24974744     1.28668043     1.75804609
C      -0.90982781     1.17039903     1.05808150
N      -0.50654377    -0.09835326     0.76294994
O      -0.24299368     2.14496095     0.77015676
H       0.35814685    -0.22138042     0.26278294
H      -1.06730175    -0.90344947     0.97305723
H      -2.14582332     1.97826745     2.59283224
H      -2.96867650     1.71776331     1.05924213
H      -2.63797892     0.33467772     2.12079801
C      -4.50041689     1.57489396     2.80753168
C      -5.83784082     1.75744468     3.46557617
O      -6.32532827     0.58265547     3.93640893
O      -6.43458346     2.79526589     3.58131934
H      -7.18377234     0.77757901     4.34438088
H      -3.79090677     1.15470145     3.52196715
H      -4.58806622     0.86771436     1.98133820
H      -4.14058711     2.53257029     2.44296865
17 
# or1: geometry number 29. C1-C10 distance: 2.45 
C      -2.24974744     1.28668043     1.75804609
C      -0.90982781     1.17039903     1.05808150
N      -0.50654377    -0.09835326     0.76294994
O      -0.24299368     2.14496095     0.77015676
H       0.35814685    -0.22138042     0.26278294
H      -1.06730175    -0.90344947     0.97305723
H      -2.14582332     1.97826745     2.59283224
H      -2.96867650     1.71776331     1.05924213
H      -2.63797892     0.33467772     2.12079801
C      -4.45540350     1.56912969     2.78654197
C      -5.79282743     1.75168041     3.44458646
O      -6.28031488     0.57689120     3.91541922
O      -6.38957007     2.78950162     3.56032963
H      -7.13875895     0.77181474     4.32339117
H      -3.74589338     1.14893718     3.50097744
H      -4.54305283     0.86195009     1.96034849
H      -4.09557372     2.52680602     2.42197894
17 
# or1: geometry number 30. C1-C10 distance: 2.4 
C      -2.24974744     1.28668043     1.75804609
C      -0.90982781     1.17039903     1.05808150
N      -0.50654377    -0.09835326     0.76294994
O      -0.24299368     2.14496095     0.77015676
H       0.35814685    -0.22138042     0.26278294
H      -1.06730175    -0.90344947     0.97305723
H      -2.14582332     1.97826745     2.59283224
H      -2.96867650     1.71776331     1.05924213
H      -2.63797892     0.33467772     2.12079801
C      -4.41039011     1.56336542     2.76555226
C      -5.74781404     1.74591614     3.42359675
O      -6.23530149     0.57112693     3.89442951
O      -6.34455668     2.78373735     3.53933992
H      -7.09374556     0.76605047     4.30240146
H      -3.70087999     1.14317291     3.47998773
H      -4.49803944     0.85618582     1.93935878
H      -4.05056033     2.52104175     2.40098923
