17 
# or24: geometry number 1. O4-H15 distance: 10 
C      -2.36620423    -1.76261702    -0.90170926
C      -1.96888936    -0.65212514     0.05107878
N      -1.74928838    -1.05139152     1.33631604
O      -1.96908967     0.51973315    -0.27154710
H      -1.55110360    -0.34815932     2.02854419
H      -1.71971556    -2.01868980     1.60133302
H      -3.24913271    -1.44545817    -1.45470865
H      -1.55883916    -1.90566850    -1.62192895
H      -2.56919706    -2.71238484    -0.40637426
C      -1.98907768    11.22594072    -3.16252444
C      -3.32605125    11.80525449    -2.79927879
O      -4.33372808    11.18582741    -3.46287103
O      -3.52173911    12.70360740    -2.02388254
H      -5.15932618    11.60965713    -3.17981874
H      -1.97073767    10.16101910    -2.92590250
H      -1.82289835    11.32383196    -4.23638793
H      -1.20723079    11.74383031    -2.61477135
17 
# or24: geometry number 2. O4-H15 distance: 9 
C      -2.36620423    -1.76261702    -0.90170926
C      -1.96888936    -0.65212514     0.05107878
N      -1.74928838    -1.05139152     1.33631604
O      -1.96908967     0.51973315    -0.27154710
H      -1.55110360    -0.34815932     2.02854419
H      -1.71971556    -2.01868980     1.60133302
H      -3.24913271    -1.44545817    -1.45470865
H      -1.55883916    -1.90566850    -1.62192895
H      -2.56919706    -2.71238484    -0.40637426
C      -1.98891288    10.26181212    -2.89708890
C      -3.32588645    10.84112589    -2.53384325
O      -4.33356328    10.22169881    -3.19743549
O      -3.52157431    11.73947880    -1.75844700
H      -5.15916138    10.64552853    -2.91438320
H      -1.97057287     9.19689050    -2.66046696
H      -1.82273355    10.35970336    -3.97095239
H      -1.20706599    10.77970171    -2.34933581
17 
# or24: geometry number 3. O4-H15 distance: 8 
C      -2.36620423    -1.76261702    -0.90170926
C      -1.96888936    -0.65212514     0.05107878
N      -1.74928838    -1.05139152     1.33631604
O      -1.96908967     0.51973315    -0.27154710
H      -1.55110360    -0.34815932     2.02854419
H      -1.71971556    -2.01868980     1.60133302
H      -3.24913271    -1.44545817    -1.45470865
H      -1.55883916    -1.90566850    -1.62192895
H      -2.56919706    -2.71238484    -0.40637426
C      -1.98874808     9.29768353    -2.63165336
C      -3.32572165     9.87699730    -2.26840771
O      -4.33339848     9.25757022    -2.93199995
O      -3.52140951    10.77535021    -1.49301146
H      -5.15899658     9.68139994    -2.64894766
H      -1.97040807     8.23276191    -2.39503142
H      -1.82256875     9.39557477    -3.70551685
H      -1.20690119     9.81557312    -2.08390027
17 
# or24: geometry number 4. O4-H15 distance: 7 
C      -2.36620423    -1.76261702    -0.90170926
C      -1.96888936    -0.65212514     0.05107878
N      -1.74928838    -1.05139152     1.33631604
O      -1.96908967     0.51973315    -0.27154710
H      -1.55110360    -0.34815932     2.02854419
H      -1.71971556    -2.01868980     1.60133302
H      -3.24913271    -1.44545817    -1.45470865
H      -1.55883916    -1.90566850    -1.62192895
H      -2.56919706    -2.71238484    -0.40637426
C      -1.98858328     8.33355493    -2.36621782
C      -3.32555685     8.91286870    -2.00297217
O      -4.33323368     8.29344162    -2.66656441
O      -3.52124471     9.81122161    -1.22757592
H      -5.15883178     8.71727134    -2.38351212
H      -1.97024327     7.26863331    -2.12959588
H      -1.82240395     8.43144617    -3.44008131
H      -1.20673639     8.85144452    -1.81846473
17 
# or24: geometry number 5. O4-H15 distance: 6 
C      -2.36620423    -1.76261702    -0.90170926
C      -1.96888936    -0.65212514     0.05107878
N      -1.74928838    -1.05139152     1.33631604
O      -1.96908967     0.51973315    -0.27154710
H      -1.55110360    -0.34815932     2.02854419
H      -1.71971556    -2.01868980     1.60133302
H      -3.24913271    -1.44545817    -1.45470865
H      -1.55883916    -1.90566850    -1.62192895
H      -2.56919706    -2.71238484    -0.40637426
C      -1.98841848     7.36942634    -2.10078228
C      -3.32539205     7.94874011    -1.73753663
O      -4.33306888     7.32931303    -2.40112887
O      -3.52107991     8.84709302    -0.96214038
H      -5.15866698     7.75314275    -2.11807658
H      -1.97007847     6.30450472    -1.86416034
H      -1.82223915     7.46731758    -3.17464577
H      -1.20657159     7.88731593    -1.55302919
17 
# or24: geometry number 6. O4-H15 distance: 5 
C      -2.36620423    -1.76261702    -0.90170926
C      -1.96888936    -0.65212514     0.05107878
N      -1.74928838    -1.05139152     1.33631604
O      -1.96908967     0.51973315    -0.27154710
H      -1.55110360    -0.34815932     2.02854419
H      -1.71971556    -2.01868980     1.60133302
H      -3.24913271    -1.44545817    -1.45470865
H      -1.55883916    -1.90566850    -1.62192895
H      -2.56919706    -2.71238484    -0.40637426
C      -1.98825368     6.40529774    -1.83534674
C      -3.32522725     6.98461151    -1.47210109
O      -4.33290408     6.36518443    -2.13569333
O      -3.52091511     7.88296442    -0.69670484
H      -5.15850218     6.78901415    -1.85264104
H      -1.96991367     5.34037612    -1.59872480
H      -1.82207435     6.50318898    -2.90921023
H      -1.20640679     6.92318733    -1.28759365
17 
# or24: geometry number 7. O4-H15 distance: 4.5 
C      -2.36620423    -1.76261702    -0.90170926
C      -1.96888936    -0.65212514     0.05107878
N      -1.74928838    -1.05139152     1.33631604
O      -1.96908967     0.51973315    -0.27154710
H      -1.55110360    -0.34815932     2.02854419
H      -1.71971556    -2.01868980     1.60133302
H      -3.24913271    -1.44545817    -1.45470865
H      -1.55883916    -1.90566850    -1.62192895
H      -2.56919706    -2.71238484    -0.40637426
C      -1.98817128     5.92323345    -1.70262897
C      -3.32514485     6.50254722    -1.33938332
O      -4.33282168     5.88312014    -2.00297556
O      -3.52083271     7.40090013    -0.56398707
H      -5.15841978     6.30694986    -1.71992327
H      -1.96983127     4.85831183    -1.46600703
H      -1.82199195     6.02112469    -2.77649246
H      -1.20632439     6.44112304    -1.15487588
17 
# or24: geometry number 8. O4-H15 distance: 4 
C      -2.36620423    -1.76261702    -0.90170926
C      -1.96888936    -0.65212514     0.05107878
N      -1.74928838    -1.05139152     1.33631604
O      -1.96908967     0.51973315    -0.27154710
H      -1.55110360    -0.34815932     2.02854419
H      -1.71971556    -2.01868980     1.60133302
H      -3.24913271    -1.44545817    -1.45470865
H      -1.55883916    -1.90566850    -1.62192895
H      -2.56919706    -2.71238484    -0.40637426
C      -1.98808888     5.44116915    -1.56991120
C      -3.32506245     6.02048292    -1.20666555
O      -4.33273928     5.40105584    -1.87025779
O      -3.52075031     6.91883583    -0.43126930
H      -5.15833738     5.82488556    -1.58720550
H      -1.96974887     4.37624753    -1.33328926
H      -1.82190955     5.53906039    -2.64377469
H      -1.20624199     5.95905874    -1.02215811
17 
# or24: geometry number 9. O4-H15 distance: 3.7 
C      -2.36620423    -1.76261702    -0.90170926
C      -1.96888936    -0.65212514     0.05107878
N      -1.74928838    -1.05139152     1.33631604
O      -1.96908967     0.51973315    -0.27154710
H      -1.55110360    -0.34815932     2.02854419
H      -1.71971556    -2.01868980     1.60133302
H      -3.24913271    -1.44545817    -1.45470865
H      -1.55883916    -1.90566850    -1.62192895
H      -2.56919706    -2.71238484    -0.40637426
C      -1.98803944     5.15193057    -1.49028054
C      -3.32501301     5.73124434    -1.12703489
O      -4.33268984     5.11181726    -1.79062713
O      -3.52070087     6.62959725    -0.35163864
H      -5.15828794     5.53564698    -1.50757484
H      -1.96969943     4.08700895    -1.25365860
H      -1.82186011     5.24982181    -2.56414403
H      -1.20619255     5.66982016    -0.94252745
17 
# or24: geometry number 10. O4-H15 distance: 3.4 
C      -2.36620423    -1.76261702    -0.90170926
C      -1.96888936    -0.65212514     0.05107878
N      -1.74928838    -1.05139152     1.33631604
O      -1.96908967     0.51973315    -0.27154710
H      -1.55110360    -0.34815932     2.02854419
H      -1.71971556    -2.01868980     1.60133302
H      -3.24913271    -1.44545817    -1.45470865
H      -1.55883916    -1.90566850    -1.62192895
H      -2.56919706    -2.71238484    -0.40637426
C      -1.98799000     4.86269199    -1.41064988
C      -3.32496357     5.44200576    -1.04740423
O      -4.33264040     4.82257868    -1.71099647
O      -3.52065143     6.34035867    -0.27200798
H      -5.15823850     5.24640840    -1.42794418
H      -1.96964999     3.79777037    -1.17402794
H      -1.82181067     4.96058323    -2.48451337
H      -1.20614311     5.38058158    -0.86289679
17 
# or24: geometry number 11. O4-H15 distance: 3.1 
C      -2.36620423    -1.76261702    -0.90170926
C      -1.96888936    -0.65212514     0.05107878
N      -1.74928838    -1.05139152     1.33631604
O      -1.96908967     0.51973315    -0.27154710
H      -1.55110360    -0.34815932     2.02854419
H      -1.71971556    -2.01868980     1.60133302
H      -3.24913271    -1.44545817    -1.45470865
H      -1.55883916    -1.90566850    -1.62192895
H      -2.56919706    -2.71238484    -0.40637426
C      -1.98794056     4.57345341    -1.33101921
C      -3.32491413     5.15276718    -0.96777356
O      -4.33259096     4.53334010    -1.63136580
O      -3.52060199     6.05112009    -0.19237731
H      -5.15818906     4.95716982    -1.34831351
H      -1.96960055     3.50853179    -1.09439727
H      -1.82176123     4.67134465    -2.40488270
H      -1.20609367     5.09134300    -0.78326612
17 
# or24: geometry number 12. O4-H15 distance: 2.9 
C      -2.36620423    -1.76261702    -0.90170926
C      -1.96888936    -0.65212514     0.05107878
N      -1.74928838    -1.05139152     1.33631604
O      -1.96908967     0.51973315    -0.27154710
H      -1.55110360    -0.34815932     2.02854419
H      -1.71971556    -2.01868980     1.60133302
H      -3.24913271    -1.44545817    -1.45470865
H      -1.55883916    -1.90566850    -1.62192895
H      -2.56919706    -2.71238484    -0.40637426
C      -1.98790760     4.38062769    -1.27793211
C      -3.32488117     4.95994146    -0.91468646
O      -4.33255800     4.34051438    -1.57827870
O      -3.52056903     5.85829437    -0.13929021
H      -5.15815610     4.76434410    -1.29522641
H      -1.96956759     3.31570607    -1.04131017
H      -1.82172827     4.47851893    -2.35179560
H      -1.20606071     4.89851728    -0.73017902
17 
# or24: geometry number 13. O4-H15 distance: 2.7 
C      -2.36620423    -1.76261702    -0.90170926
C      -1.96888936    -0.65212514     0.05107878
N      -1.74928838    -1.05139152     1.33631604
O      -1.96908967     0.51973315    -0.27154710
H      -1.55110360    -0.34815932     2.02854419
H      -1.71971556    -2.01868980     1.60133302
H      -3.24913271    -1.44545817    -1.45470865
H      -1.55883916    -1.90566850    -1.62192895
H      -2.56919706    -2.71238484    -0.40637426
C      -1.98787464     4.18780198    -1.22484500
C      -3.32484821     4.76711575    -0.86159935
O      -4.33252504     4.14768867    -1.52519159
O      -3.52053607     5.66546866    -0.08620310
H      -5.15812314     4.57151839    -1.24213930
H      -1.96953463     3.12288036    -0.98822306
H      -1.82169531     4.28569322    -2.29870849
H      -1.20602775     4.70569157    -0.67709191
17 
# or24: geometry number 14. O4-H15 distance: 2.5 
C      -2.36620423    -1.76261702    -0.90170926
C      -1.96888936    -0.65212514     0.05107878
N      -1.74928838    -1.05139152     1.33631604
O      -1.96908967     0.51973315    -0.27154710
H      -1.55110360    -0.34815932     2.02854419
H      -1.71971556    -2.01868980     1.60133302
H      -3.24913271    -1.44545817    -1.45470865
H      -1.55883916    -1.90566850    -1.62192895
H      -2.56919706    -2.71238484    -0.40637426
C      -1.98784168     3.99497626    -1.17175789
C      -3.32481525     4.57429003    -0.80851224
O      -4.33249208     3.95486295    -1.47210448
O      -3.52050311     5.47264294    -0.03311599
H      -5.15809018     4.37869267    -1.18905219
H      -1.96950167     2.93005464    -0.93513595
H      -1.82166235     4.09286750    -2.24562138
H      -1.20599479     4.51286585    -0.62400480
17 
# or24: geometry number 15. O4-H15 distance: 2.4 
C      -2.36620423    -1.76261702    -0.90170926
C      -1.96888936    -0.65212514     0.05107878
N      -1.74928838    -1.05139152     1.33631604
O      -1.96908967     0.51973315    -0.27154710
H      -1.55110360    -0.34815932     2.02854419
H      -1.71971556    -2.01868980     1.60133302
H      -3.24913271    -1.44545817    -1.45470865
H      -1.55883916    -1.90566850    -1.62192895
H      -2.56919706    -2.71238484    -0.40637426
C      -1.98782520     3.89856340    -1.14521434
C      -3.32479877     4.47787717    -0.78196869
O      -4.33247560     3.85845009    -1.44556093
O      -3.52048663     5.37623008    -0.00657244
H      -5.15807370     4.28227981    -1.16250864
H      -1.96948519     2.83364178    -0.90859240
H      -1.82164587     3.99645464    -2.21907783
H      -1.20597831     4.41645299    -0.59746125
17 
# or24: geometry number 16. O4-H15 distance: 2.3 
C      -2.36620423    -1.76261702    -0.90170926
C      -1.96888936    -0.65212514     0.05107878
N      -1.74928838    -1.05139152     1.33631604
O      -1.96908967     0.51973315    -0.27154710
H      -1.55110360    -0.34815932     2.02854419
H      -1.71971556    -2.01868980     1.60133302
H      -3.24913271    -1.44545817    -1.45470865
H      -1.55883916    -1.90566850    -1.62192895
H      -2.56919706    -2.71238484    -0.40637426
C      -1.98780872     3.80215054    -1.11867078
C      -3.32478229     4.38146431    -0.75542513
O      -4.33245912     3.76203723    -1.41901737
O      -3.52047015     5.27981722     0.01997112
H      -5.15805722     4.18586695    -1.13596508
H      -1.96946871     2.73722892    -0.88204884
H      -1.82162939     3.90004178    -2.19253427
H      -1.20596183     4.32004013    -0.57091769
17 
# or24: geometry number 17. O4-H15 distance: 2.2 
C      -2.36620423    -1.76261702    -0.90170926
C      -1.96888936    -0.65212514     0.05107878
N      -1.74928838    -1.05139152     1.33631604
O      -1.96908967     0.51973315    -0.27154710
H      -1.55110360    -0.34815932     2.02854419
H      -1.71971556    -2.01868980     1.60133302
H      -3.24913271    -1.44545817    -1.45470865
H      -1.55883916    -1.90566850    -1.62192895
H      -2.56919706    -2.71238484    -0.40637426
C      -1.98779224     3.70573768    -1.09212723
C      -3.32476581     4.28505145    -0.72888158
O      -4.33244264     3.66562437    -1.39247382
O      -3.52045367     5.18340436     0.04651467
H      -5.15804074     4.08945409    -1.10942153
H      -1.96945223     2.64081606    -0.85550529
H      -1.82161291     3.80362892    -2.16599072
H      -1.20594535     4.22362727    -0.54437414
17 
# or24: geometry number 18. O4-H15 distance: 2.1 
C      -2.36620423    -1.76261702    -0.90170926
C      -1.96888936    -0.65212514     0.05107878
N      -1.74928838    -1.05139152     1.33631604
O      -1.96908967     0.51973315    -0.27154710
H      -1.55110360    -0.34815932     2.02854419
H      -1.71971556    -2.01868980     1.60133302
H      -3.24913271    -1.44545817    -1.45470865
H      -1.55883916    -1.90566850    -1.62192895
H      -2.56919706    -2.71238484    -0.40637426
C      -1.98777576     3.60932482    -1.06558367
C      -3.32474933     4.18863859    -0.70233802
O      -4.33242616     3.56921151    -1.36593026
O      -3.52043719     5.08699150     0.07305823
H      -5.15802426     3.99304123    -1.08287797
H      -1.96943575     2.54440320    -0.82896173
H      -1.82159643     3.70721606    -2.13944716
H      -1.20592887     4.12721441    -0.51783058
17 
# or24: geometry number 19. O4-H15 distance: 2.0 
C      -2.36620423    -1.76261702    -0.90170926
C      -1.96888936    -0.65212514     0.05107878
N      -1.74928838    -1.05139152     1.33631604
O      -1.96908967     0.51973315    -0.27154710
H      -1.55110360    -0.34815932     2.02854419
H      -1.71971556    -2.01868980     1.60133302
H      -3.24913271    -1.44545817    -1.45470865
H      -1.55883916    -1.90566850    -1.62192895
H      -2.56919706    -2.71238484    -0.40637426
C      -1.98775928     3.51291196    -1.03904012
C      -3.32473285     4.09222573    -0.67579447
O      -4.33240968     3.47279865    -1.33938671
O      -3.52042071     4.99057864     0.09960178
H      -5.15800778     3.89662837    -1.05633442
H      -1.96941927     2.44799034    -0.80241818
H      -1.82157995     3.61080320    -2.11290361
H      -1.20591239     4.03080155    -0.49128703
17 
# or24: geometry number 20. O4-H15 distance: 1.9 
C      -2.36620423    -1.76261702    -0.90170926
C      -1.96888936    -0.65212514     0.05107878
N      -1.74928838    -1.05139152     1.33631604
O      -1.96908967     0.51973315    -0.27154710
H      -1.55110360    -0.34815932     2.02854419
H      -1.71971556    -2.01868980     1.60133302
H      -3.24913271    -1.44545817    -1.45470865
H      -1.55883916    -1.90566850    -1.62192895
H      -2.56919706    -2.71238484    -0.40637426
C      -1.98774280     3.41649910    -1.01249657
C      -3.32471637     3.99581287    -0.64925092
O      -4.33239320     3.37638579    -1.31284316
O      -3.52040423     4.89416578     0.12614533
H      -5.15799130     3.80021551    -1.02979087
H      -1.96940279     2.35157748    -0.77587463
H      -1.82156347     3.51439034    -2.08636006
H      -1.20589591     3.93438869    -0.46474348
17 
# or24: geometry number 21. O4-H15 distance: 1.8 
C      -2.36620423    -1.76261702    -0.90170926
C      -1.96888936    -0.65212514     0.05107878
N      -1.74928838    -1.05139152     1.33631604
O      -1.96908967     0.51973315    -0.27154710
H      -1.55110360    -0.34815932     2.02854419
H      -1.71971556    -2.01868980     1.60133302
H      -3.24913271    -1.44545817    -1.45470865
H      -1.55883916    -1.90566850    -1.62192895
H      -2.56919706    -2.71238484    -0.40637426
C      -1.98772632     3.32008624    -0.98595301
C      -3.32469989     3.89940001    -0.62270736
O      -4.33237672     3.27997293    -1.28629960
O      -3.52038775     4.79775292     0.15268889
H      -5.15797482     3.70380265    -1.00324731
H      -1.96938631     2.25516462    -0.74933107
H      -1.82154699     3.41797748    -2.05981650
H      -1.20587943     3.83797583    -0.43819992
17 
# or24: geometry number 22. O4-H15 distance: 1.75 
C      -2.36620423    -1.76261702    -0.90170926
C      -1.96888936    -0.65212514     0.05107878
N      -1.74928838    -1.05139152     1.33631604
O      -1.96908967     0.51973315    -0.27154710
H      -1.55110360    -0.34815932     2.02854419
H      -1.71971556    -2.01868980     1.60133302
H      -3.24913271    -1.44545817    -1.45470865
H      -1.55883916    -1.90566850    -1.62192895
H      -2.56919706    -2.71238484    -0.40637426
C      -1.98771808     3.27187981    -0.97268123
C      -3.32469165     3.85119358    -0.60943558
O      -4.33236848     3.23176650    -1.27302782
O      -3.52037951     4.74954649     0.16596067
H      -5.15796658     3.65559622    -0.98997553
H      -1.96937807     2.20695819    -0.73605929
H      -1.82153875     3.36977105    -2.04654472
H      -1.20587119     3.78976940    -0.42492814
17 
# or24: geometry number 23. O4-H15 distance: 1.7 
C      -2.36620423    -1.76261702    -0.90170926
C      -1.96888936    -0.65212514     0.05107878
N      -1.74928838    -1.05139152     1.33631604
O      -1.96908967     0.51973315    -0.27154710
H      -1.55110360    -0.34815932     2.02854419
H      -1.71971556    -2.01868980     1.60133302
H      -3.24913271    -1.44545817    -1.45470865
H      -1.55883916    -1.90566850    -1.62192895
H      -2.56919706    -2.71238484    -0.40637426
C      -1.98770984     3.22367338    -0.95940946
C      -3.32468341     3.80298715    -0.59616381
O      -4.33236024     3.18356007    -1.25975605
O      -3.52037127     4.70134006     0.17923244
H      -5.15795834     3.60738979    -0.97670376
H      -1.96936983     2.15875176    -0.72278752
H      -1.82153051     3.32156462    -2.03327295
H      -1.20586295     3.74156297    -0.41165637
17 
# or24: geometry number 24. O4-H15 distance: 1.65 
C      -2.36620423    -1.76261702    -0.90170926
C      -1.96888936    -0.65212514     0.05107878
N      -1.74928838    -1.05139152     1.33631604
O      -1.96908967     0.51973315    -0.27154710
H      -1.55110360    -0.34815932     2.02854419
H      -1.71971556    -2.01868980     1.60133302
H      -3.24913271    -1.44545817    -1.45470865
H      -1.55883916    -1.90566850    -1.62192895
H      -2.56919706    -2.71238484    -0.40637426
C      -1.98770160     3.17546695    -0.94613768
C      -3.32467517     3.75478072    -0.58289203
O      -4.33235200     3.13535364    -1.24648427
O      -3.52036303     4.65313363     0.19250422
H      -5.15795010     3.55918336    -0.96343198
H      -1.96936159     2.11054533    -0.70951574
H      -1.82152227     3.27335819    -2.02000117
H      -1.20585471     3.69335654    -0.39838459
17 
# or24: geometry number 25. O4-H15 distance: 1.6 
C      -2.36620423    -1.76261702    -0.90170926
C      -1.96888936    -0.65212514     0.05107878
N      -1.74928838    -1.05139152     1.33631604
O      -1.96908967     0.51973315    -0.27154710
H      -1.55110360    -0.34815932     2.02854419
H      -1.71971556    -2.01868980     1.60133302
H      -3.24913271    -1.44545817    -1.45470865
H      -1.55883916    -1.90566850    -1.62192895
H      -2.56919706    -2.71238484    -0.40637426
C      -1.98769336     3.12726052    -0.93286590
C      -3.32466693     3.70657429    -0.56962025
O      -4.33234376     3.08714721    -1.23321249
O      -3.52035479     4.60492720     0.20577600
H      -5.15794186     3.51097693    -0.95016020
H      -1.96935335     2.06233890    -0.69624396
H      -1.82151403     3.22515176    -2.00672939
H      -1.20584647     3.64515011    -0.38511281
17 
# or24: geometry number 26. O4-H15 distance: 1.55 
C      -2.36620423    -1.76261702    -0.90170926
C      -1.96888936    -0.65212514     0.05107878
N      -1.74928838    -1.05139152     1.33631604
O      -1.96908967     0.51973315    -0.27154710
H      -1.55110360    -0.34815932     2.02854419
H      -1.71971556    -2.01868980     1.60133302
H      -3.24913271    -1.44545817    -1.45470865
H      -1.55883916    -1.90566850    -1.62192895
H      -2.56919706    -2.71238484    -0.40637426
C      -1.98768512     3.07905409    -0.91959413
C      -3.32465869     3.65836786    -0.55634848
O      -4.33233552     3.03894078    -1.21994072
O      -3.52034655     4.55672077     0.21904777
H      -5.15793362     3.46277050    -0.93688843
H      -1.96934511     2.01413247    -0.68297219
H      -1.82150579     3.17694533    -1.99345762
H      -1.20583823     3.59694368    -0.37184104
17 
# or24: geometry number 27. O4-H15 distance: 1.5 
C      -2.36620423    -1.76261702    -0.90170926
C      -1.96888936    -0.65212514     0.05107878
N      -1.74928838    -1.05139152     1.33631604
O      -1.96908967     0.51973315    -0.27154710
H      -1.55110360    -0.34815932     2.02854419
H      -1.71971556    -2.01868980     1.60133302
H      -3.24913271    -1.44545817    -1.45470865
H      -1.55883916    -1.90566850    -1.62192895
H      -2.56919706    -2.71238484    -0.40637426
C      -1.98767688     3.03084766    -0.90632235
C      -3.32465045     3.61016143    -0.54307670
O      -4.33232728     2.99073435    -1.20666894
O      -3.52033831     4.50851434     0.23231955
H      -5.15792538     3.41456407    -0.92361665
H      -1.96933687     1.96592604    -0.66970041
H      -1.82149755     3.12873890    -1.98018584
H      -1.20582999     3.54873725    -0.35856926
17 
# or24: geometry number 28. O4-H15 distance: 1.45 
C      -2.36620423    -1.76261702    -0.90170926
C      -1.96888936    -0.65212514     0.05107878
N      -1.74928838    -1.05139152     1.33631604
O      -1.96908967     0.51973315    -0.27154710
H      -1.55110360    -0.34815932     2.02854419
H      -1.71971556    -2.01868980     1.60133302
H      -3.24913271    -1.44545817    -1.45470865
H      -1.55883916    -1.90566850    -1.62192895
H      -2.56919706    -2.71238484    -0.40637426
C      -1.98766864     2.98264123    -0.89305057
C      -3.32464221     3.56195500    -0.52980492
O      -4.33231904     2.94252792    -1.19339716
O      -3.52033007     4.46030791     0.24559133
H      -5.15791714     3.36635764    -0.91034487
H      -1.96932863     1.91771961    -0.65642863
H      -1.82148931     3.08053247    -1.96691406
H      -1.20582175     3.50053082    -0.34529748
17 
# or24: geometry number 29. O4-H15 distance: 1.4 
C      -2.36620423    -1.76261702    -0.90170926
C      -1.96888936    -0.65212514     0.05107878
N      -1.74928838    -1.05139152     1.33631604
O      -1.96908967     0.51973315    -0.27154710
H      -1.55110360    -0.34815932     2.02854419
H      -1.71971556    -2.01868980     1.60133302
H      -3.24913271    -1.44545817    -1.45470865
H      -1.55883916    -1.90566850    -1.62192895
H      -2.56919706    -2.71238484    -0.40637426
C      -1.98766040     2.93443480    -0.87977880
C      -3.32463397     3.51374857    -0.51653315
O      -4.33231080     2.89432149    -1.18012539
O      -3.52032183     4.41210148     0.25886310
H      -5.15790890     3.31815121    -0.89707310
H      -1.96932039     1.86951318    -0.64315686
H      -1.82148107     3.03232604    -1.95364229
H      -1.20581351     3.45232439    -0.33202571
17 
# or24: geometry number 30. O4-H15 distance: 1.35 
C      -2.36620423    -1.76261702    -0.90170926
C      -1.96888936    -0.65212514     0.05107878
N      -1.74928838    -1.05139152     1.33631604
O      -1.96908967     0.51973315    -0.27154710
H      -1.55110360    -0.34815932     2.02854419
H      -1.71971556    -2.01868980     1.60133302
H      -3.24913271    -1.44545817    -1.45470865
H      -1.55883916    -1.90566850    -1.62192895
H      -2.56919706    -2.71238484    -0.40637426
C      -1.98765216     2.88622837    -0.86650702
C      -3.32462573     3.46554214    -0.50326137
O      -4.33230256     2.84611506    -1.16685361
O      -3.52031359     4.36389505     0.27213488
H      -5.15790066     3.26994478    -0.88380132
H      -1.96931215     1.82130675    -0.62988508
H      -1.82147283     2.98411961    -1.94037051
H      -1.20580527     3.40411796    -0.31875393
17 
# or24: geometry number 31. O4-H15 distance: 1.3 
C      -2.36620423    -1.76261702    -0.90170926
C      -1.96888936    -0.65212514     0.05107878
N      -1.74928838    -1.05139152     1.33631604
O      -1.96908967     0.51973315    -0.27154710
H      -1.55110360    -0.34815932     2.02854419
H      -1.71971556    -2.01868980     1.60133302
H      -3.24913271    -1.44545817    -1.45470865
H      -1.55883916    -1.90566850    -1.62192895
H      -2.56919706    -2.71238484    -0.40637426
C      -1.98764392     2.83802194    -0.85323524
C      -3.32461749     3.41733571    -0.48998959
O      -4.33229432     2.79790863    -1.15358183
O      -3.52030535     4.31568862     0.28540666
H      -5.15789242     3.22173835    -0.87052954
H      -1.96930391     1.77310032    -0.61661330
H      -1.82146459     2.93591318    -1.92709873
H      -1.20579703     3.35591153    -0.30548215
