17 
# or26: geometry number 1. H6-C11 distance: 10 
C      -2.33540538    -1.59206605    -0.79374557
C      -1.90333351    -0.54683772     0.21604056
N      -1.71089799    -1.01779933     1.48120331
O      -1.85478852     0.63868369    -0.04762917
H      -1.49144470    -0.35819519     2.20904613
H      -1.72157378    -1.99747483     1.69775920
H      -3.20031641    -1.21316425    -1.33626110
H      -1.52793291    -1.73100540    -1.51464955
H      -2.57980689    -2.55648264    -0.34788651
C      -3.22661138   -11.83040572     3.31373737
C      -1.82797194   -11.76121337     3.85601989
O      -0.90767996   -12.01739795     2.89326899
O      -1.52013089   -11.51346370     4.99198864
H      -0.03562209   -11.95530669     3.31400905
H      -3.34583222   -11.10815145     2.50471356
H      -3.41285591   -12.82096836     2.89602972
H      -3.93593759   -11.62093642     4.10904018
17 
# or26: geometry number 2. H6-C11 distance: 9 
C      -2.33540538    -1.59206605    -0.79374557
C      -1.90333351    -0.54683772     0.21604056
N      -1.71089799    -1.01779933     1.48120331
O      -1.85478852     0.63868369    -0.04762917
H      -1.49144470    -0.35819519     2.20904613
H      -1.72157378    -1.99747483     1.69775920
H      -3.20031641    -1.21316425    -1.33626110
H      -1.52793291    -1.73100540    -1.51464955
H      -2.57980689    -2.55648264    -0.34788651
C      -3.21597157   -10.85403186     3.09791130
C      -1.81733213   -10.78483951     3.64019382
O      -0.89704015   -11.04102409     2.67744292
O      -1.50949108   -10.53708984     4.77616257
H      -0.02498228   -10.97893283     3.09818298
H      -3.33519241   -10.13177759     2.28888749
H      -3.40221610   -11.84459450     2.68020365
H      -3.92529778   -10.64456256     3.89321411
17 
# or26: geometry number 3. H6-C11 distance: 8 
C      -2.33540538    -1.59206605    -0.79374557
C      -1.90333351    -0.54683772     0.21604056
N      -1.71089799    -1.01779933     1.48120331
O      -1.85478852     0.63868369    -0.04762917
H      -1.49144470    -0.35819519     2.20904613
H      -1.72157378    -1.99747483     1.69775920
H      -3.20031641    -1.21316425    -1.33626110
H      -1.52793291    -1.73100540    -1.51464955
H      -2.57980689    -2.55648264    -0.34788651
C      -3.20533175    -9.87765801     2.88208523
C      -1.80669231    -9.80846566     3.42436775
O      -0.88640033   -10.06465024     2.46161685
O      -1.49885126    -9.56071599     4.56033650
H      -0.01434246   -10.00255898     2.88235691
H      -3.32455259    -9.15540374     2.07306142
H      -3.39157628   -10.86822065     2.46437758
H      -3.91465796    -9.66818871     3.67738804
17 
# or26: geometry number 4. H6-C11 distance: 7 
C      -2.33540538    -1.59206605    -0.79374557
C      -1.90333351    -0.54683772     0.21604056
N      -1.71089799    -1.01779933     1.48120331
O      -1.85478852     0.63868369    -0.04762917
H      -1.49144470    -0.35819519     2.20904613
H      -1.72157378    -1.99747483     1.69775920
H      -3.20031641    -1.21316425    -1.33626110
H      -1.52793291    -1.73100540    -1.51464955
H      -2.57980689    -2.55648264    -0.34788651
C      -3.19469193    -8.90128416     2.66625916
C      -1.79605249    -8.83209181     3.20854168
O      -0.87576051    -9.08827639     2.24579078
O      -1.48821144    -8.58434214     4.34451043
H      -0.00370264    -9.02618513     2.66653084
H      -3.31391277    -8.17902989     1.85723535
H      -3.38093646    -9.89184680     2.24855151
H      -3.90401814    -8.69181486     3.46156197
17 
# or26: geometry number 5. H6-C11 distance: 6 
C      -2.33540538    -1.59206605    -0.79374557
C      -1.90333351    -0.54683772     0.21604056
N      -1.71089799    -1.01779933     1.48120331
O      -1.85478852     0.63868369    -0.04762917
H      -1.49144470    -0.35819519     2.20904613
H      -1.72157378    -1.99747483     1.69775920
H      -3.20031641    -1.21316425    -1.33626110
H      -1.52793291    -1.73100540    -1.51464955
H      -2.57980689    -2.55648264    -0.34788651
C      -3.18405212    -7.92491030     2.45043309
C      -1.78541268    -7.85571795     2.99271561
O      -0.86512070    -8.11190253     2.02996471
O      -1.47757163    -7.60796828     4.12868436
H       0.00693717    -8.04981127     2.45070477
H      -3.30327296    -7.20265603     1.64140928
H      -3.37029665    -8.91547294     2.03272544
H      -3.89337833    -7.71544100     3.24573590
17 
# or26: geometry number 6. H6-C11 distance: 5 
C      -2.33540538    -1.59206605    -0.79374557
C      -1.90333351    -0.54683772     0.21604056
N      -1.71089799    -1.01779933     1.48120331
O      -1.85478852     0.63868369    -0.04762917
H      -1.49144470    -0.35819519     2.20904613
H      -1.72157378    -1.99747483     1.69775920
H      -3.20031641    -1.21316425    -1.33626110
H      -1.52793291    -1.73100540    -1.51464955
H      -2.57980689    -2.55648264    -0.34788651
C      -3.17341230    -6.94853645     2.23460703
C      -1.77477286    -6.87934410     2.77688955
O      -0.85448088    -7.13552868     1.81413865
O      -1.46693181    -6.63159443     3.91285830
H       0.01757699    -7.07343742     2.23487871
H      -3.29263314    -6.22628218     1.42558322
H      -3.35965683    -7.93909909     1.81689938
H      -3.88273851    -6.73906715     3.02990984
17 
# or26: geometry number 7. H6-C11 distance: 4.5 
C      -2.33540538    -1.59206605    -0.79374557
C      -1.90333351    -0.54683772     0.21604056
N      -1.71089799    -1.01779933     1.48120331
O      -1.85478852     0.63868369    -0.04762917
H      -1.49144470    -0.35819519     2.20904613
H      -1.72157378    -1.99747483     1.69775920
H      -3.20031641    -1.21316425    -1.33626110
H      -1.52793291    -1.73100540    -1.51464955
H      -2.57980689    -2.55648264    -0.34788651
C      -3.16809239    -6.46034952     2.12669399
C      -1.76945295    -6.39115717     2.66897651
O      -0.84916097    -6.64734175     1.70622561
O      -1.46161190    -6.14340750     3.80494526
H       0.02289690    -6.58525049     2.12696567
H      -3.28731323    -5.73809525     1.31767018
H      -3.35433692    -7.45091216     1.70898634
H      -3.87741860    -6.25088022     2.92199680
17 
# or26: geometry number 8. H6-C11 distance: 4 
C      -2.33540538    -1.59206605    -0.79374557
C      -1.90333351    -0.54683772     0.21604056
N      -1.71089799    -1.01779933     1.48120331
O      -1.85478852     0.63868369    -0.04762917
H      -1.49144470    -0.35819519     2.20904613
H      -1.72157378    -1.99747483     1.69775920
H      -3.20031641    -1.21316425    -1.33626110
H      -1.52793291    -1.73100540    -1.51464955
H      -2.57980689    -2.55648264    -0.34788651
C      -3.16277249    -5.97216259     2.01878096
C      -1.76413305    -5.90297024     2.56106348
O      -0.84384107    -6.15915482     1.59831258
O      -1.45629200    -5.65522057     3.69703223
H       0.02821680    -6.09706356     2.01905264
H      -3.28199333    -5.24990832     1.20975715
H      -3.34901702    -6.96272523     1.60107331
H      -3.87209870    -5.76269329     2.81408377
17 
# or26: geometry number 9. H6-C11 distance: 3.7 
C      -2.33540538    -1.59206605    -0.79374557
C      -1.90333351    -0.54683772     0.21604056
N      -1.71089799    -1.01779933     1.48120331
O      -1.85478852     0.63868369    -0.04762917
H      -1.49144470    -0.35819519     2.20904613
H      -1.72157378    -1.99747483     1.69775920
H      -3.20031641    -1.21316425    -1.33626110
H      -1.52793291    -1.73100540    -1.51464955
H      -2.57980689    -2.55648264    -0.34788651
C      -3.15958054    -5.67925044     1.95403314
C      -1.76094110    -5.61005809     2.49631566
O      -0.84064912    -5.86624267     1.53356476
O      -1.45310005    -5.36230842     3.63228441
H       0.03140875    -5.80415141     1.95430482
H      -3.27880138    -4.95699617     1.14500933
H      -3.34582507    -6.66981308     1.53632549
H      -3.86890675    -5.46978114     2.74933595
17 
# or26: geometry number 10. H6-C11 distance: 3.4 
C      -2.33540538    -1.59206605    -0.79374557
C      -1.90333351    -0.54683772     0.21604056
N      -1.71089799    -1.01779933     1.48120331
O      -1.85478852     0.63868369    -0.04762917
H      -1.49144470    -0.35819519     2.20904613
H      -1.72157378    -1.99747483     1.69775920
H      -3.20031641    -1.21316425    -1.33626110
H      -1.52793291    -1.73100540    -1.51464955
H      -2.57980689    -2.55648264    -0.34788651
C      -3.15638860    -5.38633828     1.88928531
C      -1.75774916    -5.31714593     2.43156783
O      -0.83745718    -5.57333051     1.46881693
O      -1.44990811    -5.06939626     3.56753658
H       0.03460069    -5.51123925     1.88955699
H      -3.27560944    -4.66408401     1.08026150
H      -3.34263313    -6.37690092     1.47157766
H      -3.86571481    -5.17686898     2.68458812
17 
# or26: geometry number 11. H6-C11 distance: 3.1 
C      -2.33540538    -1.59206605    -0.79374557
C      -1.90333351    -0.54683772     0.21604056
N      -1.71089799    -1.01779933     1.48120331
O      -1.85478852     0.63868369    -0.04762917
H      -1.49144470    -0.35819519     2.20904613
H      -1.72157378    -1.99747483     1.69775920
H      -3.20031641    -1.21316425    -1.33626110
H      -1.52793291    -1.73100540    -1.51464955
H      -2.57980689    -2.55648264    -0.34788651
C      -3.15319665    -5.09342613     1.82453749
C      -1.75455721    -5.02423378     2.36682001
O      -0.83426523    -5.28041836     1.40406911
O      -1.44671616    -4.77648411     3.50278876
H       0.03779264    -5.21832710     1.82480917
H      -3.27241749    -4.37117186     1.01551368
H      -3.33944118    -6.08398877     1.40682984
H      -3.86252286    -4.88395683     2.61984030
17 
# or26: geometry number 12. H6-C11 distance: 2.9 
C      -2.33540538    -1.59206605    -0.79374557
C      -1.90333351    -0.54683772     0.21604056
N      -1.71089799    -1.01779933     1.48120331
O      -1.85478852     0.63868369    -0.04762917
H      -1.49144470    -0.35819519     2.20904613
H      -1.72157378    -1.99747483     1.69775920
H      -3.20031641    -1.21316425    -1.33626110
H      -1.52793291    -1.73100540    -1.51464955
H      -2.57980689    -2.55648264    -0.34788651
C      -3.15106869    -4.89815136     1.78137228
C      -1.75242925    -4.82895901     2.32365480
O      -0.83213727    -5.08514359     1.36090390
O      -1.44458820    -4.58120934     3.45962355
H       0.03992060    -5.02305233     1.78164396
H      -3.27028953    -4.17589709     0.97234847
H      -3.33731322    -5.88871400     1.36366463
H      -3.86039490    -4.68868206     2.57667509
17 
# or26: geometry number 13. H6-C11 distance: 2.7 
C      -2.33540538    -1.59206605    -0.79374557
C      -1.90333351    -0.54683772     0.21604056
N      -1.71089799    -1.01779933     1.48120331
O      -1.85478852     0.63868369    -0.04762917
H      -1.49144470    -0.35819519     2.20904613
H      -1.72157378    -1.99747483     1.69775920
H      -3.20031641    -1.21316425    -1.33626110
H      -1.52793291    -1.73100540    -1.51464955
H      -2.57980689    -2.55648264    -0.34788651
C      -3.14894072    -4.70287659     1.73820707
C      -1.75030128    -4.63368424     2.28048959
O      -0.83000930    -4.88986882     1.31773869
O      -1.44246023    -4.38593457     3.41645834
H       0.04204857    -4.82777756     1.73847875
H      -3.26816156    -3.98062232     0.92918326
H      -3.33518525    -5.69343923     1.32049942
H      -3.85826693    -4.49340729     2.53350988
17 
# or26: geometry number 14. H6-C11 distance: 2.5 
C      -2.33540538    -1.59206605    -0.79374557
C      -1.90333351    -0.54683772     0.21604056
N      -1.71089799    -1.01779933     1.48120331
O      -1.85478852     0.63868369    -0.04762917
H      -1.49144470    -0.35819519     2.20904613
H      -1.72157378    -1.99747483     1.69775920
H      -3.20031641    -1.21316425    -1.33626110
H      -1.52793291    -1.73100540    -1.51464955
H      -2.57980689    -2.55648264    -0.34788651
C      -3.14681276    -4.50760181     1.69504185
C      -1.74817332    -4.43840946     2.23732437
O      -0.82788134    -4.69459404     1.27457347
O      -1.44033227    -4.19065979     3.37329312
H       0.04417653    -4.63250278     1.69531353
H      -3.26603360    -3.78534754     0.88601804
H      -3.33305729    -5.49816445     1.27733420
H      -3.85613897    -4.29813251     2.49034466
17 
# or26: geometry number 15. H6-C11 distance: 2.4 
C      -2.33540538    -1.59206605    -0.79374557
C      -1.90333351    -0.54683772     0.21604056
N      -1.71089799    -1.01779933     1.48120331
O      -1.85478852     0.63868369    -0.04762917
H      -1.49144470    -0.35819519     2.20904613
H      -1.72157378    -1.99747483     1.69775920
H      -3.20031641    -1.21316425    -1.33626110
H      -1.52793291    -1.73100540    -1.51464955
H      -2.57980689    -2.55648264    -0.34788651
C      -3.14574878    -4.40996443     1.67345925
C      -1.74710934    -4.34077208     2.21574177
O      -0.82681736    -4.59695666     1.25299087
O      -1.43926829    -4.09302241     3.35171052
H       0.04524051    -4.53486540     1.67373093
H      -3.26496962    -3.68771016     0.86443544
H      -3.33199331    -5.40052707     1.25575160
H      -3.85507499    -4.20049513     2.46876206
17 
# or26: geometry number 16. H6-C11 distance: 2.3 
C      -2.33540538    -1.59206605    -0.79374557
C      -1.90333351    -0.54683772     0.21604056
N      -1.71089799    -1.01779933     1.48120331
O      -1.85478852     0.63868369    -0.04762917
H      -1.49144470    -0.35819519     2.20904613
H      -1.72157378    -1.99747483     1.69775920
H      -3.20031641    -1.21316425    -1.33626110
H      -1.52793291    -1.73100540    -1.51464955
H      -2.57980689    -2.55648264    -0.34788651
C      -3.14468480    -4.31232704     1.65187664
C      -1.74604536    -4.24313469     2.19415916
O      -0.82575338    -4.49931927     1.23140826
O      -1.43820431    -3.99538502     3.33012791
H       0.04630449    -4.43722801     1.65214832
H      -3.26390564    -3.59007277     0.84285283
H      -3.33092933    -5.30288968     1.23416899
H      -3.85401101    -4.10285774     2.44717945
17 
# or26: geometry number 17. H6-C11 distance: 2.2 
C      -2.33540538    -1.59206605    -0.79374557
C      -1.90333351    -0.54683772     0.21604056
N      -1.71089799    -1.01779933     1.48120331
O      -1.85478852     0.63868369    -0.04762917
H      -1.49144470    -0.35819519     2.20904613
H      -1.72157378    -1.99747483     1.69775920
H      -3.20031641    -1.21316425    -1.33626110
H      -1.52793291    -1.73100540    -1.51464955
H      -2.57980689    -2.55648264    -0.34788651
C      -3.14362082    -4.21468966     1.63029403
C      -1.74498138    -4.14549731     2.17257655
O      -0.82468940    -4.40168189     1.20982565
O      -1.43714033    -3.89774764     3.30854530
H       0.04736847    -4.33959063     1.63056571
H      -3.26284166    -3.49243539     0.82127022
H      -3.32986535    -5.20525230     1.21258638
H      -3.85294703    -4.00522036     2.42559684
17 
# or26: geometry number 18. H6-C11 distance: 2.1 
C      -2.33540538    -1.59206605    -0.79374557
C      -1.90333351    -0.54683772     0.21604056
N      -1.71089799    -1.01779933     1.48120331
O      -1.85478852     0.63868369    -0.04762917
H      -1.49144470    -0.35819519     2.20904613
H      -1.72157378    -1.99747483     1.69775920
H      -3.20031641    -1.21316425    -1.33626110
H      -1.52793291    -1.73100540    -1.51464955
H      -2.57980689    -2.55648264    -0.34788651
C      -3.14255683    -4.11705227     1.60871143
C      -1.74391739    -4.04785992     2.15099395
O      -0.82362541    -4.30404450     1.18824305
O      -1.43607634    -3.80011025     3.28696270
H       0.04843246    -4.24195324     1.60898311
H      -3.26177767    -3.39479800     0.79968762
H      -3.32880136    -5.10761491     1.19100378
H      -3.85188304    -3.90758297     2.40401424
17 
# or26: geometry number 19. H6-C11 distance: 2.0 
C      -2.33540538    -1.59206605    -0.79374557
C      -1.90333351    -0.54683772     0.21604056
N      -1.71089799    -1.01779933     1.48120331
O      -1.85478852     0.63868369    -0.04762917
H      -1.49144470    -0.35819519     2.20904613
H      -1.72157378    -1.99747483     1.69775920
H      -3.20031641    -1.21316425    -1.33626110
H      -1.52793291    -1.73100540    -1.51464955
H      -2.57980689    -2.55648264    -0.34788651
C      -3.14149285    -4.01941489     1.58712882
C      -1.74285341    -3.95022254     2.12941134
O      -0.82256143    -4.20640712     1.16666044
O      -1.43501236    -3.70247287     3.26538009
H       0.04949644    -4.14431586     1.58740050
H      -3.26071369    -3.29716062     0.77810501
H      -3.32773738    -5.00997753     1.16942117
H      -3.85081906    -3.80994559     2.38243163
17 
# or26: geometry number 20. H6-C11 distance: 1.9 
C      -2.33540538    -1.59206605    -0.79374557
C      -1.90333351    -0.54683772     0.21604056
N      -1.71089799    -1.01779933     1.48120331
O      -1.85478852     0.63868369    -0.04762917
H      -1.49144470    -0.35819519     2.20904613
H      -1.72157378    -1.99747483     1.69775920
H      -3.20031641    -1.21316425    -1.33626110
H      -1.52793291    -1.73100540    -1.51464955
H      -2.57980689    -2.55648264    -0.34788651
C      -3.14042887    -3.92177750     1.56554621
C      -1.74178943    -3.85258515     2.10782873
O      -0.82149745    -4.10876973     1.14507783
O      -1.43394838    -3.60483548     3.24379748
H       0.05056042    -4.04667847     1.56581789
H      -3.25964971    -3.19952323     0.75652240
H      -3.32667340    -4.91234014     1.14783856
H      -3.84975508    -3.71230820     2.36084902
17 
# or26: geometry number 21. H6-C11 distance: 1.85 
C      -2.33540538    -1.59206605    -0.79374557
C      -1.90333351    -0.54683772     0.21604056
N      -1.71089799    -1.01779933     1.48120331
O      -1.85478852     0.63868369    -0.04762917
H      -1.49144470    -0.35819519     2.20904613
H      -1.72157378    -1.99747483     1.69775920
H      -3.20031641    -1.21316425    -1.33626110
H      -1.52793291    -1.73100540    -1.51464955
H      -2.57980689    -2.55648264    -0.34788651
C      -3.13989688    -3.87295881     1.55475491
C      -1.74125744    -3.80376646     2.09703743
O      -0.82096546    -4.05995104     1.13428653
O      -1.43341639    -3.55601679     3.23300618
H       0.05109241    -3.99785978     1.55502659
H      -3.25911772    -3.15070454     0.74573110
H      -3.32614141    -4.86352145     1.13704726
H      -3.84922309    -3.66348951     2.35005772
17 
# or26: geometry number 22. H6-C11 distance: 1.8 
C      -2.33540538    -1.59206605    -0.79374557
C      -1.90333351    -0.54683772     0.21604056
N      -1.71089799    -1.01779933     1.48120331
O      -1.85478852     0.63868369    -0.04762917
H      -1.49144470    -0.35819519     2.20904613
H      -1.72157378    -1.99747483     1.69775920
H      -3.20031641    -1.21316425    -1.33626110
H      -1.52793291    -1.73100540    -1.51464955
H      -2.57980689    -2.55648264    -0.34788651
C      -3.13936489    -3.82414012     1.54396360
C      -1.74072545    -3.75494777     2.08624612
O      -0.82043347    -4.01113235     1.12349522
O      -1.43288440    -3.50719810     3.22221487
H       0.05162440    -3.94904109     1.54423528
H      -3.25858573    -3.10188585     0.73493979
H      -3.32560942    -4.81470276     1.12625595
H      -3.84869110    -3.61467082     2.33926641
17 
# or26: geometry number 23. H6-C11 distance: 1.75 
C      -2.33540538    -1.59206605    -0.79374557
C      -1.90333351    -0.54683772     0.21604056
N      -1.71089799    -1.01779933     1.48120331
O      -1.85478852     0.63868369    -0.04762917
H      -1.49144470    -0.35819519     2.20904613
H      -1.72157378    -1.99747483     1.69775920
H      -3.20031641    -1.21316425    -1.33626110
H      -1.52793291    -1.73100540    -1.51464955
H      -2.57980689    -2.55648264    -0.34788651
C      -3.13883290    -3.77532142     1.53317230
C      -1.74019346    -3.70612907     2.07545482
O      -0.81990148    -3.96231365     1.11270392
O      -1.43235241    -3.45837940     3.21142357
H       0.05215639    -3.90022239     1.53344398
H      -3.25805374    -3.05306715     0.72414849
H      -3.32507743    -4.76588406     1.11546465
H      -3.84815911    -3.56585212     2.32847511
17 
# or26: geometry number 24. H6-C11 distance: 1.7 
C      -2.33540538    -1.59206605    -0.79374557
C      -1.90333351    -0.54683772     0.21604056
N      -1.71089799    -1.01779933     1.48120331
O      -1.85478852     0.63868369    -0.04762917
H      -1.49144470    -0.35819519     2.20904613
H      -1.72157378    -1.99747483     1.69775920
H      -3.20031641    -1.21316425    -1.33626110
H      -1.52793291    -1.73100540    -1.51464955
H      -2.57980689    -2.55648264    -0.34788651
C      -3.13830091    -3.72650273     1.52238100
C      -1.73966147    -3.65731038     2.06466352
O      -0.81936949    -3.91349496     1.10191262
O      -1.43182042    -3.40956071     3.20063227
H       0.05268838    -3.85140370     1.52265268
H      -3.25752175    -3.00424846     0.71335719
H      -3.32454544    -4.71706537     1.10467335
H      -3.84762712    -3.51703343     2.31768381
17 
# or26: geometry number 25. H6-C11 distance: 1.65 
C      -2.33540538    -1.59206605    -0.79374557
C      -1.90333351    -0.54683772     0.21604056
N      -1.71089799    -1.01779933     1.48120331
O      -1.85478852     0.63868369    -0.04762917
H      -1.49144470    -0.35819519     2.20904613
H      -1.72157378    -1.99747483     1.69775920
H      -3.20031641    -1.21316425    -1.33626110
H      -1.52793291    -1.73100540    -1.51464955
H      -2.57980689    -2.55648264    -0.34788651
C      -3.13776892    -3.67768404     1.51158969
C      -1.73912948    -3.60849169     2.05387221
O      -0.81883750    -3.86467627     1.09112131
O      -1.43128843    -3.36074202     3.18984096
H       0.05322037    -3.80258501     1.51186137
H      -3.25698976    -2.95542977     0.70256588
H      -3.32401345    -4.66824668     1.09388204
H      -3.84709513    -3.46821474     2.30689250
17 
# or26: geometry number 26. H6-C11 distance: 1.6 
C      -2.33540538    -1.59206605    -0.79374557
C      -1.90333351    -0.54683772     0.21604056
N      -1.71089799    -1.01779933     1.48120331
O      -1.85478852     0.63868369    -0.04762917
H      -1.49144470    -0.35819519     2.20904613
H      -1.72157378    -1.99747483     1.69775920
H      -3.20031641    -1.21316425    -1.33626110
H      -1.52793291    -1.73100540    -1.51464955
H      -2.57980689    -2.55648264    -0.34788651
C      -3.13723693    -3.62886535     1.50079839
C      -1.73859749    -3.55967300     2.04308091
O      -0.81830551    -3.81585758     1.08033001
O      -1.43075644    -3.31192333     3.17904966
H       0.05375236    -3.75376632     1.50107007
H      -3.25645777    -2.90661108     0.69177458
H      -3.32348146    -4.61942799     1.08309074
H      -3.84656314    -3.41939605     2.29610120
17 
# or26: geometry number 27. H6-C11 distance: 1.55 
C      -2.33540538    -1.59206605    -0.79374557
C      -1.90333351    -0.54683772     0.21604056
N      -1.71089799    -1.01779933     1.48120331
O      -1.85478852     0.63868369    -0.04762917
H      -1.49144470    -0.35819519     2.20904613
H      -1.72157378    -1.99747483     1.69775920
H      -3.20031641    -1.21316425    -1.33626110
H      -1.52793291    -1.73100540    -1.51464955
H      -2.57980689    -2.55648264    -0.34788651
C      -3.13670494    -3.58004665     1.49000709
C      -1.73806550    -3.51085430     2.03228961
O      -0.81777352    -3.76703888     1.06953871
O      -1.43022445    -3.26310463     3.16825836
H       0.05428435    -3.70494762     1.49027877
H      -3.25592578    -2.85779238     0.68098328
H      -3.32294947    -4.57060929     1.07229944
H      -3.84603115    -3.37057735     2.28530990
17 
# or26: geometry number 28. H6-C11 distance: 1.5 
C      -2.33540538    -1.59206605    -0.79374557
C      -1.90333351    -0.54683772     0.21604056
N      -1.71089799    -1.01779933     1.48120331
O      -1.85478852     0.63868369    -0.04762917
H      -1.49144470    -0.35819519     2.20904613
H      -1.72157378    -1.99747483     1.69775920
H      -3.20031641    -1.21316425    -1.33626110
H      -1.52793291    -1.73100540    -1.51464955
H      -2.57980689    -2.55648264    -0.34788651
C      -3.13617294    -3.53122796     1.47921578
C      -1.73753350    -3.46203561     2.02149830
O      -0.81724152    -3.71822019     1.05874740
O      -1.42969245    -3.21428594     3.15746705
H       0.05481635    -3.65612893     1.47948746
H      -3.25539378    -2.80897369     0.67019197
H      -3.32241747    -4.52179060     1.06150813
H      -3.84549915    -3.32175866     2.27451859
17 
# or26: geometry number 29. H6-C11 distance: 1.45 
C      -2.33540538    -1.59206605    -0.79374557
C      -1.90333351    -0.54683772     0.21604056
N      -1.71089799    -1.01779933     1.48120331
O      -1.85478852     0.63868369    -0.04762917
H      -1.49144470    -0.35819519     2.20904613
H      -1.72157378    -1.99747483     1.69775920
H      -3.20031641    -1.21316425    -1.33626110
H      -1.52793291    -1.73100540    -1.51464955
H      -2.57980689    -2.55648264    -0.34788651
C      -3.13564095    -3.48240927     1.46842448
C      -1.73700151    -3.41321692     2.01070700
O      -0.81670953    -3.66940150     1.04795610
O      -1.42916046    -3.16546725     3.14667575
H       0.05534834    -3.60731024     1.46869616
H      -3.25486179    -2.76015500     0.65940067
H      -3.32188548    -4.47297191     1.05071683
H      -3.84496716    -3.27293997     2.26372729
17 
# or26: geometry number 30. H6-C11 distance: 1.4 
C      -2.33540538    -1.59206605    -0.79374557
C      -1.90333351    -0.54683772     0.21604056
N      -1.71089799    -1.01779933     1.48120331
O      -1.85478852     0.63868369    -0.04762917
H      -1.49144470    -0.35819519     2.20904613
H      -1.72157378    -1.99747483     1.69775920
H      -3.20031641    -1.21316425    -1.33626110
H      -1.52793291    -1.73100540    -1.51464955
H      -2.57980689    -2.55648264    -0.34788651
C      -3.13510896    -3.43359058     1.45763318
C      -1.73646952    -3.36439823     1.99991570
O      -0.81617754    -3.62058281     1.03716480
O      -1.42862847    -3.11664856     3.13588445
H       0.05588033    -3.55849155     1.45790486
H      -3.25432980    -2.71133631     0.64860937
H      -3.32135349    -4.42415322     1.03992553
H      -3.84443517    -3.22412128     2.25293599
