17 
# or27: geometry number 1. H6-O12 distance: 10 
C      -2.33540538    -1.59206605    -0.79374557
C      -1.90333351    -0.54683772     0.21604056
N      -1.71089799    -1.01779933     1.48120331
O      -1.85478852     0.63868369    -0.04762917
H      -1.49144470    -0.35819519     2.20904613
H      -1.72157378    -1.99747483     1.69775920
H      -3.20031641    -1.21316425    -1.33626110
H      -1.52793291    -1.73100540    -1.51464955
H      -2.57980689    -2.55648264    -0.34788651
C       0.48109809   -11.94137275     3.38174015
C      -0.79740074   -12.63672824     3.75183700
O      -1.82797186   -11.76121338     3.85601984
O      -0.93294663   -13.81680355     3.94057114
H      -2.61327454   -12.27825928     4.09544770
H       0.35728348   -11.42098210     2.43082066
H       0.72509305   -11.19034682     4.13460637
H       1.28308604   -12.66992539     3.30721496
17 
# or27: geometry number 2. H6-O12 distance: 9 
C      -2.33540538    -1.59206605    -0.79374557
C      -1.90333351    -0.54683772     0.21604056
N      -1.71089799    -1.01779933     1.48120331
O      -1.85478852     0.63868369    -0.04762917
H      -1.49144470    -0.35819519     2.20904613
H      -1.72157378    -1.99747483     1.69775920
H      -3.20031641    -1.21316425    -1.33626110
H      -1.52793291    -1.73100540    -1.51464955
H      -2.57980689    -2.55648264    -0.34788651
C       0.49173790   -10.96499889     3.16591409
C      -0.78676093   -11.66035438     3.53601094
O      -1.81733205   -10.78483952     3.64019378
O      -0.92230682   -12.84042969     3.72474508
H      -2.60263473   -11.30188542     3.87962164
H       0.36792329   -10.44460824     2.21499460
H       0.73573286   -10.21397296     3.91878031
H       1.29372585   -11.69355153     3.09138890
17 
# or27: geometry number 3. H6-O12 distance: 8 
C      -2.33540538    -1.59206605    -0.79374557
C      -1.90333351    -0.54683772     0.21604056
N      -1.71089799    -1.01779933     1.48120331
O      -1.85478852     0.63868369    -0.04762917
H      -1.49144470    -0.35819519     2.20904613
H      -1.72157378    -1.99747483     1.69775920
H      -3.20031641    -1.21316425    -1.33626110
H      -1.52793291    -1.73100540    -1.51464955
H      -2.57980689    -2.55648264    -0.34788651
C       0.50237771    -9.98862504     2.95008802
C      -0.77612112   -10.68398053     3.32018487
O      -1.80669224    -9.80846567     3.42436771
O      -0.91166701   -11.86405584     3.50891901
H      -2.59199492   -10.32551157     3.66379557
H       0.37856310    -9.46823439     1.99916853
H       0.74637267    -9.23759911     3.70295424
H       1.30436566   -10.71717768     2.87556283
17 
# or27: geometry number 4. H6-O12 distance: 7 
C      -2.33540538    -1.59206605    -0.79374557
C      -1.90333351    -0.54683772     0.21604056
N      -1.71089799    -1.01779933     1.48120331
O      -1.85478852     0.63868369    -0.04762917
H      -1.49144470    -0.35819519     2.20904613
H      -1.72157378    -1.99747483     1.69775920
H      -3.20031641    -1.21316425    -1.33626110
H      -1.52793291    -1.73100540    -1.51464955
H      -2.57980689    -2.55648264    -0.34788651
C       0.51301751    -9.01225118     2.73426196
C      -0.76548132    -9.70760667     3.10435881
O      -1.79605244    -8.83209181     3.20854165
O      -0.90102721   -10.88768198     3.29309295
H      -2.58135512    -9.34913771     3.44796951
H       0.38920290    -8.49186053     1.78334247
H       0.75701247    -8.26122525     3.48712818
H       1.31500546    -9.74080382     2.65973677
17 
# or27: geometry number 5. H6-O12 distance: 6 
C      -2.33540538    -1.59206605    -0.79374557
C      -1.90333351    -0.54683772     0.21604056
N      -1.71089799    -1.01779933     1.48120331
O      -1.85478852     0.63868369    -0.04762917
H      -1.49144470    -0.35819519     2.20904613
H      -1.72157378    -1.99747483     1.69775920
H      -3.20031641    -1.21316425    -1.33626110
H      -1.52793291    -1.73100540    -1.51464955
H      -2.57980689    -2.55648264    -0.34788651
C       0.52365732    -8.03587733     2.51843590
C      -0.75484151    -8.73123282     2.88853275
O      -1.78541263    -7.85571796     2.99271559
O      -0.89038740    -9.91130813     3.07726689
H      -2.57071531    -8.37276386     3.23214345
H       0.39984271    -7.51548668     1.56751641
H       0.76765228    -7.28485140     3.27130212
H       1.32564527    -8.76442997     2.44391071
17 
# or27: geometry number 6. H6-O12 distance: 5 
C      -2.33540538    -1.59206605    -0.79374557
C      -1.90333351    -0.54683772     0.21604056
N      -1.71089799    -1.01779933     1.48120331
O      -1.85478852     0.63868369    -0.04762917
H      -1.49144470    -0.35819519     2.20904613
H      -1.72157378    -1.99747483     1.69775920
H      -3.20031641    -1.21316425    -1.33626110
H      -1.52793291    -1.73100540    -1.51464955
H      -2.57980689    -2.55648264    -0.34788651
C       0.53429713    -7.05950347     2.30260983
C      -0.74420170    -7.75485896     2.67270668
O      -1.77477282    -6.87934410     2.77688952
O      -0.87974759    -8.93493427     2.86144082
H      -2.56007550    -7.39639000     3.01631738
H       0.41048252    -6.53911282     1.35169034
H       0.77829209    -6.30847754     3.05547605
H       1.33628508    -7.78805611     2.22808464
17 
# or27: geometry number 7. H6-O12 distance: 4.5 
C      -2.33540538    -1.59206605    -0.79374557
C      -1.90333351    -0.54683772     0.21604056
N      -1.71089799    -1.01779933     1.48120331
O      -1.85478852     0.63868369    -0.04762917
H      -1.49144470    -0.35819519     2.20904613
H      -1.72157378    -1.99747483     1.69775920
H      -3.20031641    -1.21316425    -1.33626110
H      -1.52793291    -1.73100540    -1.51464955
H      -2.57980689    -2.55648264    -0.34788651
C       0.53961703    -6.57131655     2.19469680
C      -0.73888180    -7.26667204     2.56479365
O      -1.76945292    -6.39115718     2.66897649
O      -0.87442769    -8.44674735     2.75352779
H      -2.55475560    -6.90820308     2.90840435
H       0.41580242    -6.05092590     1.24377731
H       0.78361199    -5.82029062     2.94756302
H       1.34160498    -7.29986919     2.12017161
17 
# or27: geometry number 8. H6-O12 distance: 4 
C      -2.33540538    -1.59206605    -0.79374557
C      -1.90333351    -0.54683772     0.21604056
N      -1.71089799    -1.01779933     1.48120331
O      -1.85478852     0.63868369    -0.04762917
H      -1.49144470    -0.35819519     2.20904613
H      -1.72157378    -1.99747483     1.69775920
H      -3.20031641    -1.21316425    -1.33626110
H      -1.52793291    -1.73100540    -1.51464955
H      -2.57980689    -2.55648264    -0.34788651
C       0.54493694    -6.08312962     2.08678377
C      -0.73356189    -6.77848511     2.45688062
O      -1.76413301    -5.90297025     2.56106346
O      -0.86910778    -7.95856042     2.64561476
H      -2.54943569    -6.42001615     2.80049132
H       0.42112233    -5.56273897     1.13586428
H       0.78893190    -5.33210369     2.83964999
H       1.34692489    -6.81168226     2.01225858
17 
# or27: geometry number 9. H6-O12 distance: 3.7 
C      -2.33540538    -1.59206605    -0.79374557
C      -1.90333351    -0.54683772     0.21604056
N      -1.71089799    -1.01779933     1.48120331
O      -1.85478852     0.63868369    -0.04762917
H      -1.49144470    -0.35819519     2.20904613
H      -1.72157378    -1.99747483     1.69775920
H      -3.20031641    -1.21316425    -1.33626110
H      -1.52793291    -1.73100540    -1.51464955
H      -2.57980689    -2.55648264    -0.34788651
C       0.54812888    -5.79021746     2.02203595
C      -0.73036995    -6.48557295     2.39213280
O      -1.76094107    -5.61005809     2.49631564
O      -0.86591584    -7.66564826     2.58086694
H      -2.54624375    -6.12710399     2.73574350
H       0.42431427    -5.26982681     1.07111646
H       0.79212384    -5.03919153     2.77490217
H       1.35011683    -6.51877010     1.94751076
17 
# or27: geometry number 10. H6-O12 distance: 3.4 
C      -2.33540538    -1.59206605    -0.79374557
C      -1.90333351    -0.54683772     0.21604056
N      -1.71089799    -1.01779933     1.48120331
O      -1.85478852     0.63868369    -0.04762917
H      -1.49144470    -0.35819519     2.20904613
H      -1.72157378    -1.99747483     1.69775920
H      -3.20031641    -1.21316425    -1.33626110
H      -1.52793291    -1.73100540    -1.51464955
H      -2.57980689    -2.55648264    -0.34788651
C       0.55132082    -5.49730531     1.95728813
C      -0.72717801    -6.19266080     2.32738498
O      -1.75774913    -5.31714594     2.43156782
O      -0.86272390    -7.37273611     2.51611912
H      -2.54305181    -5.83419184     2.67099568
H       0.42750621    -4.97691466     1.00636864
H       0.79531578    -4.74627938     2.71015435
H       1.35330877    -6.22585795     1.88276294
17 
# or27: geometry number 11. H6-O12 distance: 3.1 
C      -2.33540538    -1.59206605    -0.79374557
C      -1.90333351    -0.54683772     0.21604056
N      -1.71089799    -1.01779933     1.48120331
O      -1.85478852     0.63868369    -0.04762917
H      -1.49144470    -0.35819519     2.20904613
H      -1.72157378    -1.99747483     1.69775920
H      -3.20031641    -1.21316425    -1.33626110
H      -1.52793291    -1.73100540    -1.51464955
H      -2.57980689    -2.55648264    -0.34788651
C       0.55451277    -5.20439315     1.89254031
C      -0.72398606    -5.89974864     2.26263716
O      -1.75455718    -5.02423378     2.36682000
O      -0.85953195    -7.07982395     2.45137130
H      -2.53985986    -5.54127968     2.60624786
H       0.43069816    -4.68400250     0.94162082
H       0.79850773    -4.45336722     2.64540653
H       1.35650072    -5.93294579     1.81801512
17 
# or27: geometry number 12. H6-O12 distance: 2.9 
C      -2.33540538    -1.59206605    -0.79374557
C      -1.90333351    -0.54683772     0.21604056
N      -1.71089799    -1.01779933     1.48120331
O      -1.85478852     0.63868369    -0.04762917
H      -1.49144470    -0.35819519     2.20904613
H      -1.72157378    -1.99747483     1.69775920
H      -3.20031641    -1.21316425    -1.33626110
H      -1.52793291    -1.73100540    -1.51464955
H      -2.57980689    -2.55648264    -0.34788651
C       0.55664073    -5.00911838     1.84937510
C      -0.72185810    -5.70447387     2.21947195
O      -1.75242922    -4.82895901     2.32365479
O      -0.85740399    -6.88454918     2.40820609
H      -2.53773190    -5.34600491     2.56308265
H       0.43282612    -4.48872773     0.89845561
H       0.80063569    -4.25809245     2.60224132
H       1.35862868    -5.73767102     1.77484991
17 
# or27: geometry number 13. H6-O12 distance: 2.7 
C      -2.33540538    -1.59206605    -0.79374557
C      -1.90333351    -0.54683772     0.21604056
N      -1.71089799    -1.01779933     1.48120331
O      -1.85478852     0.63868369    -0.04762917
H      -1.49144470    -0.35819519     2.20904613
H      -1.72157378    -1.99747483     1.69775920
H      -3.20031641    -1.21316425    -1.33626110
H      -1.52793291    -1.73100540    -1.51464955
H      -2.57980689    -2.55648264    -0.34788651
C       0.55876869    -4.81384361     1.80620988
C      -0.71973014    -5.50919910     2.17630673
O      -1.75030126    -4.63368424     2.28048957
O      -0.85527603    -6.68927441     2.36504087
H      -2.53560394    -5.15073014     2.51991743
H       0.43495408    -4.29345296     0.85529039
H       0.80276365    -4.06281768     2.55907610
H       1.36075664    -5.54239625     1.73168469
17 
# or27: geometry number 14. H6-O12 distance: 2.5 
C      -2.33540538    -1.59206605    -0.79374557
C      -1.90333351    -0.54683772     0.21604056
N      -1.71089799    -1.01779933     1.48120331
O      -1.85478852     0.63868369    -0.04762917
H      -1.49144470    -0.35819519     2.20904613
H      -1.72157378    -1.99747483     1.69775920
H      -3.20031641    -1.21316425    -1.33626110
H      -1.52793291    -1.73100540    -1.51464955
H      -2.57980689    -2.55648264    -0.34788651
C       0.56089665    -4.61856884     1.76304467
C      -0.71760218    -5.31392433     2.13314152
O      -1.74817330    -4.43840947     2.23732436
O      -0.85314807    -6.49399964     2.32187566
H      -2.53347598    -4.95545537     2.47675222
H       0.43708204    -4.09817819     0.81212518
H       0.80489161    -3.86754291     2.51591089
H       1.36288460    -5.34712148     1.68851948
17 
# or27: geometry number 15. H6-O12 distance: 2.4 
C      -2.33540538    -1.59206605    -0.79374557
C      -1.90333351    -0.54683772     0.21604056
N      -1.71089799    -1.01779933     1.48120331
O      -1.85478852     0.63868369    -0.04762917
H      -1.49144470    -0.35819519     2.20904613
H      -1.72157378    -1.99747483     1.69775920
H      -3.20031641    -1.21316425    -1.33626110
H      -1.52793291    -1.73100540    -1.51464955
H      -2.57980689    -2.55648264    -0.34788651
C       0.56196063    -4.52093145     1.74146206
C      -0.71653820    -5.21628694     2.11155891
O      -1.74710932    -4.34077208     2.21574175
O      -0.85208409    -6.39636225     2.30029305
H      -2.53241200    -4.85781798     2.45516961
H       0.43814602    -4.00054080     0.79054257
H       0.80595559    -3.76990552     2.49432828
H       1.36394858    -5.24948409     1.66693687
17 
# or27: geometry number 16. H6-O12 distance: 2.3 
C      -2.33540538    -1.59206605    -0.79374557
C      -1.90333351    -0.54683772     0.21604056
N      -1.71089799    -1.01779933     1.48120331
O      -1.85478852     0.63868369    -0.04762917
H      -1.49144470    -0.35819519     2.20904613
H      -1.72157378    -1.99747483     1.69775920
H      -3.20031641    -1.21316425    -1.33626110
H      -1.52793291    -1.73100540    -1.51464955
H      -2.57980689    -2.55648264    -0.34788651
C       0.56302461    -4.42329407     1.71987946
C      -0.71547422    -5.11864956     2.08997631
O      -1.74604534    -4.24313470     2.19415915
O      -0.85102011    -6.29872487     2.27871045
H      -2.53134802    -4.76018060     2.43358701
H       0.43921000    -3.90290342     0.76895997
H       0.80701957    -3.67226814     2.47274568
H       1.36501256    -5.15184671     1.64535427
17 
# or27: geometry number 17. H6-O12 distance: 2.2 
C      -2.33540538    -1.59206605    -0.79374557
C      -1.90333351    -0.54683772     0.21604056
N      -1.71089799    -1.01779933     1.48120331
O      -1.85478852     0.63868369    -0.04762917
H      -1.49144470    -0.35819519     2.20904613
H      -1.72157378    -1.99747483     1.69775920
H      -3.20031641    -1.21316425    -1.33626110
H      -1.52793291    -1.73100540    -1.51464955
H      -2.57980689    -2.55648264    -0.34788651
C       0.56408859    -4.32565668     1.69829685
C      -0.71441024    -5.02101217     2.06839370
O      -1.74498136    -4.14549731     2.17257654
O      -0.84995613    -6.20108748     2.25712784
H      -2.53028404    -4.66254321     2.41200440
H       0.44027398    -3.80526603     0.74737736
H       0.80808355    -3.57463075     2.45116307
H       1.36607654    -5.05420932     1.62377166
17 
# or27: geometry number 18. H6-O12 distance: 2.1 
C      -2.33540538    -1.59206605    -0.79374557
C      -1.90333351    -0.54683772     0.21604056
N      -1.71089799    -1.01779933     1.48120331
O      -1.85478852     0.63868369    -0.04762917
H      -1.49144470    -0.35819519     2.20904613
H      -1.72157378    -1.99747483     1.69775920
H      -3.20031641    -1.21316425    -1.33626110
H      -1.52793291    -1.73100540    -1.51464955
H      -2.57980689    -2.55648264    -0.34788651
C       0.56515257    -4.22801930     1.67671424
C      -0.71334626    -4.92337479     2.04681109
O      -1.74391738    -4.04785993     2.15099393
O      -0.84889215    -6.10345010     2.23554523
H      -2.52922006    -4.56490583     2.39042179
H       0.44133796    -3.70762865     0.72579475
H       0.80914753    -3.47699337     2.42958046
H       1.36714052    -4.95657194     1.60218905
17 
# or27: geometry number 19. H6-O12 distance: 2.0 
C      -2.33540538    -1.59206605    -0.79374557
C      -1.90333351    -0.54683772     0.21604056
N      -1.71089799    -1.01779933     1.48120331
O      -1.85478852     0.63868369    -0.04762917
H      -1.49144470    -0.35819519     2.20904613
H      -1.72157378    -1.99747483     1.69775920
H      -3.20031641    -1.21316425    -1.33626110
H      -1.52793291    -1.73100540    -1.51464955
H      -2.57980689    -2.55648264    -0.34788651
C       0.56621655    -4.13038191     1.65513164
C      -0.71228228    -4.82573740     2.02522849
O      -1.74285340    -3.95022254     2.12941133
O      -0.84782817    -6.00581271     2.21396263
H      -2.52815608    -4.46726844     2.36883919
H       0.44240194    -3.60999126     0.70421215
H       0.81021151    -3.37935598     2.40799786
H       1.36820450    -4.85893455     1.58060645
17 
# or27: geometry number 20. H6-O12 distance: 1.9 
C      -2.33540538    -1.59206605    -0.79374557
C      -1.90333351    -0.54683772     0.21604056
N      -1.71089799    -1.01779933     1.48120331
O      -1.85478852     0.63868369    -0.04762917
H      -1.49144470    -0.35819519     2.20904613
H      -1.72157378    -1.99747483     1.69775920
H      -3.20031641    -1.21316425    -1.33626110
H      -1.52793291    -1.73100540    -1.51464955
H      -2.57980689    -2.55648264    -0.34788651
C       0.56728054    -4.03274452     1.63354903
C      -0.71121829    -4.72810001     2.00364588
O      -1.74178941    -3.85258515     2.10782872
O      -0.84676418    -5.90817532     2.19238002
H      -2.52709209    -4.36963105     2.34725658
H       0.44346593    -3.51235387     0.68262954
H       0.81127550    -3.28171859     2.38641525
H       1.36926849    -4.76129716     1.55902384
17 
# or27: geometry number 21. H6-O12 distance: 1.8 
C      -2.33540538    -1.59206605    -0.79374557
C      -1.90333351    -0.54683772     0.21604056
N      -1.71089799    -1.01779933     1.48120331
O      -1.85478852     0.63868369    -0.04762917
H      -1.49144470    -0.35819519     2.20904613
H      -1.72157378    -1.99747483     1.69775920
H      -3.20031641    -1.21316425    -1.33626110
H      -1.52793291    -1.73100540    -1.51464955
H      -2.57980689    -2.55648264    -0.34788651
C       0.56834452    -3.93510714     1.61196643
C      -0.71015431    -4.63046263     1.98206328
O      -1.74072543    -3.75494777     2.08624612
O      -0.84570020    -5.81053794     2.17079742
H      -2.52602811    -4.27199367     2.32567398
H       0.44452991    -3.41471649     0.66104694
H       0.81233948    -3.18408121     2.36483265
H       1.37033247    -4.66365978     1.53744124
17 
# or27: geometry number 22. H6-O12 distance: 1.7 
C      -2.33540538    -1.59206605    -0.79374557
C      -1.90333351    -0.54683772     0.21604056
N      -1.71089799    -1.01779933     1.48120331
O      -1.85478852     0.63868369    -0.04762917
H      -1.49144470    -0.35819519     2.20904613
H      -1.72157378    -1.99747483     1.69775920
H      -3.20031641    -1.21316425    -1.33626110
H      -1.52793291    -1.73100540    -1.51464955
H      -2.57980689    -2.55648264    -0.34788651
C       0.56940850    -3.83746975     1.59038382
C      -0.70909033    -4.53282524     1.96048067
O      -1.73966145    -3.65731038     2.06466351
O      -0.84463622    -5.71290055     2.14921481
H      -2.52496413    -4.17435628     2.30409137
H       0.44559389    -3.31707910     0.63946433
H       0.81340346    -3.08644382     2.34325004
H       1.37139645    -4.56602239     1.51585863
17 
# or27: geometry number 23. H6-O12 distance: 1.6 
C      -2.33540538    -1.59206605    -0.79374557
C      -1.90333351    -0.54683772     0.21604056
N      -1.71089799    -1.01779933     1.48120331
O      -1.85478852     0.63868369    -0.04762917
H      -1.49144470    -0.35819519     2.20904613
H      -1.72157378    -1.99747483     1.69775920
H      -3.20031641    -1.21316425    -1.33626110
H      -1.52793291    -1.73100540    -1.51464955
H      -2.57980689    -2.55648264    -0.34788651
C       0.57047248    -3.73983237     1.56880121
C      -0.70802635    -4.43518786     1.93889806
O      -1.73859747    -3.55967300     2.04308090
O      -0.84357224    -5.61526317     2.12763220
H      -2.52390015    -4.07671890     2.28250876
H       0.44665787    -3.21944172     0.61788172
H       0.81446744    -2.98880644     2.32166743
H       1.37246043    -4.46838501     1.49427602
17 
# or27: geometry number 24. H6-O12 distance: 1.5 
C      -2.33540538    -1.59206605    -0.79374557
C      -1.90333351    -0.54683772     0.21604056
N      -1.71089799    -1.01779933     1.48120331
O      -1.85478852     0.63868369    -0.04762917
H      -1.49144470    -0.35819519     2.20904613
H      -1.72157378    -1.99747483     1.69775920
H      -3.20031641    -1.21316425    -1.33626110
H      -1.52793291    -1.73100540    -1.51464955
H      -2.57980689    -2.55648264    -0.34788651
C       0.57153646    -3.64219498     1.54721861
C      -0.70696237    -4.33755047     1.91731546
O      -1.73753349    -3.46203561     2.02149830
O      -0.84250826    -5.51762578     2.10604960
H      -2.52283617    -3.97908151     2.26092616
H       0.44772185    -3.12180433     0.59629912
H       0.81553142    -2.89116905     2.30008483
H       1.37352441    -4.37074762     1.47269342
17 
# or27: geometry number 25. H6-O12 distance: 1.4 
C      -2.33540538    -1.59206605    -0.79374557
C      -1.90333351    -0.54683772     0.21604056
N      -1.71089799    -1.01779933     1.48120331
O      -1.85478852     0.63868369    -0.04762917
H      -1.49144470    -0.35819519     2.20904613
H      -1.72157378    -1.99747483     1.69775920
H      -3.20031641    -1.21316425    -1.33626110
H      -1.52793291    -1.73100540    -1.51464955
H      -2.57980689    -2.55648264    -0.34788651
C       0.57260044    -3.54455760     1.52563600
C      -0.70589839    -4.23991309     1.89573285
O      -1.73646951    -3.36439823     1.99991569
O      -0.84144428    -5.41998840     2.08446699
H      -2.52177219    -3.88144413     2.23934355
H       0.44878583    -3.02416695     0.57471651
H       0.81659540    -2.79353167     2.27850222
H       1.37458839    -4.27311024     1.45111081
17 
# or27: geometry number 26. H6-O12 distance: 1.35 
C      -2.33540538    -1.59206605    -0.79374557
C      -1.90333351    -0.54683772     0.21604056
N      -1.71089799    -1.01779933     1.48120331
O      -1.85478852     0.63868369    -0.04762917
H      -1.49144470    -0.35819519     2.20904613
H      -1.72157378    -1.99747483     1.69775920
H      -3.20031641    -1.21316425    -1.33626110
H      -1.52793291    -1.73100540    -1.51464955
H      -2.57980689    -2.55648264    -0.34788651
C       0.57313243    -3.49573890     1.51484470
C      -0.70536640    -4.19109439     1.88494155
O      -1.73593752    -3.31557953     1.98912439
O      -0.84091229    -5.37116970     2.07367569
H      -2.52124020    -3.83262543     2.22855225
H       0.44931782    -2.97534825     0.56392521
H       0.81712739    -2.74471297     2.26771092
H       1.37512038    -4.22429154     1.44031951
17 
# or27: geometry number 27. H6-O12 distance: 1.3 
C      -2.33540538    -1.59206605    -0.79374557
C      -1.90333351    -0.54683772     0.21604056
N      -1.71089799    -1.01779933     1.48120331
O      -1.85478852     0.63868369    -0.04762917
H      -1.49144470    -0.35819519     2.20904613
H      -1.72157378    -1.99747483     1.69775920
H      -3.20031641    -1.21316425    -1.33626110
H      -1.52793291    -1.73100540    -1.51464955
H      -2.57980689    -2.55648264    -0.34788651
C       0.57366442    -3.44692021     1.50405339
C      -0.70483441    -4.14227570     1.87415024
O      -1.73540553    -3.26676084     1.97833308
O      -0.84038030    -5.32235101     2.06288438
H      -2.52070821    -3.78380674     2.21776094
H       0.44984981    -2.92652956     0.55313390
H       0.81765938    -2.69589428     2.25691961
H       1.37565237    -4.17547285     1.42952820
17 
# or27: geometry number 28. H6-O12 distance: 1.25 
C      -2.33540538    -1.59206605    -0.79374557
C      -1.90333351    -0.54683772     0.21604056
N      -1.71089799    -1.01779933     1.48120331
O      -1.85478852     0.63868369    -0.04762917
H      -1.49144470    -0.35819519     2.20904613
H      -1.72157378    -1.99747483     1.69775920
H      -3.20031641    -1.21316425    -1.33626110
H      -1.52793291    -1.73100540    -1.51464955
H      -2.57980689    -2.55648264    -0.34788651
C       0.57419641    -3.39810152     1.49326209
C      -0.70430242    -4.09345701     1.86335894
O      -1.73487354    -3.21794215     1.96754178
O      -0.83984831    -5.27353232     2.05209308
H      -2.52017622    -3.73498805     2.20696964
H       0.45038180    -2.87771087     0.54234260
H       0.81819137    -2.64707559     2.24612831
H       1.37618436    -4.12665416     1.41873690
17 
# or27: geometry number 29. H6-O12 distance: 1.2 
C      -2.33540538    -1.59206605    -0.79374557
C      -1.90333351    -0.54683772     0.21604056
N      -1.71089799    -1.01779933     1.48120331
O      -1.85478852     0.63868369    -0.04762917
H      -1.49144470    -0.35819519     2.20904613
H      -1.72157378    -1.99747483     1.69775920
H      -3.20031641    -1.21316425    -1.33626110
H      -1.52793291    -1.73100540    -1.51464955
H      -2.57980689    -2.55648264    -0.34788651
C       0.57472840    -3.34928283     1.48247079
C      -0.70377043    -4.04463832     1.85256764
O      -1.73434155    -3.16912346     1.95675048
O      -0.83931632    -5.22471363     2.04130178
H      -2.51964423    -3.68616936     2.19617834
H       0.45091379    -2.82889218     0.53155130
H       0.81872336    -2.59825690     2.23533701
H       1.37671635    -4.07783547     1.40794560
