17 
# or2: geometry number 1. C1-C11 distance: 10 
C      -2.24974744     1.28668043     1.75804609
C      -0.90982781     1.17039903     1.05808150
N      -0.50654377    -0.09835326     0.76294994
O      -0.24299368     2.14496095     0.77015676
H       0.35814685    -0.22138042     0.26278294
H      -1.06730175    -0.90344947     0.97305723
H      -2.14582332     1.97826745     2.59283224
H      -2.96867650     1.71776331     1.05924213
H      -2.63797892     0.33467772     2.12079801
C     -10.97352024     3.54925001     6.28809904
C     -11.08741248     2.05435460     6.37392661
O     -10.51729882     1.57608643     7.50780807
O     -11.60951204     1.33599539     5.56278963
H     -10.62875661     0.61237196     7.49387615
H     -11.45783485     4.00732977     7.15180424
H      -9.92275659     3.84211496     6.31061393
H     -11.43881611     3.89748036     5.37062260
17 
# or2: geometry number 2. C1-C11 distance: 9 
C      -2.24974744     1.28668043     1.75804609
C      -0.90982781     1.17039903     1.05808150
N      -0.50654377    -0.09835326     0.76294994
O      -0.24299368     2.14496095     0.77015676
H       0.35814685    -0.22138042     0.26278294
H      -1.06730175    -0.90344947     0.97305723
H      -2.14582332     1.97826745     2.59283224
H      -2.96867650     1.71776331     1.05924213
H      -2.63797892     0.33467772     2.12079801
C     -10.08975374     3.47248259     5.82651099
C     -10.20364598     1.97758718     5.91233856
O      -9.63353232     1.49931901     7.04622002
O     -10.72574554     1.25922797     5.10120158
H      -9.74499011     0.53560454     7.03228810
H     -10.57406835     3.93056235     6.69021619
H      -9.03899009     3.76534754     5.84902588
H     -10.55504961     3.82071294     4.90903455
17 
# or2: geometry number 3. C1-C11 distance: 8 
C      -2.24974744     1.28668043     1.75804609
C      -0.90982781     1.17039903     1.05808150
N      -0.50654377    -0.09835326     0.76294994
O      -0.24299368     2.14496095     0.77015676
H       0.35814685    -0.22138042     0.26278294
H      -1.06730175    -0.90344947     0.97305723
H      -2.14582332     1.97826745     2.59283224
H      -2.96867650     1.71776331     1.05924213
H      -2.63797892     0.33467772     2.12079801
C      -9.20598723     3.39571517     5.36492294
C      -9.31987947     1.90081976     5.45075051
O      -8.74976581     1.42255159     6.58463197
O      -9.84197903     1.18246055     4.63961353
H      -8.86122360     0.45883712     6.57070005
H      -9.69030184     3.85379493     6.22862814
H      -8.15522358     3.68858012     5.38743783
H      -9.67128310     3.74394552     4.44744650
17 
# or2: geometry number 4. C1-C11 distance: 7 
C      -2.24974744     1.28668043     1.75804609
C      -0.90982781     1.17039903     1.05808150
N      -0.50654377    -0.09835326     0.76294994
O      -0.24299368     2.14496095     0.77015676
H       0.35814685    -0.22138042     0.26278294
H      -1.06730175    -0.90344947     0.97305723
H      -2.14582332     1.97826745     2.59283224
H      -2.96867650     1.71776331     1.05924213
H      -2.63797892     0.33467772     2.12079801
C      -8.32222073     3.31894776     4.90333489
C      -8.43611297     1.82405235     4.98916246
O      -7.86599931     1.34578418     6.12304392
O      -8.95821253     1.10569314     4.17802548
H      -7.97745710     0.38206971     6.10911200
H      -8.80653534     3.77702752     5.76704009
H      -7.27145708     3.61181271     4.92584978
H      -8.78751660     3.66717811     3.98585845
17 
# or2: geometry number 5. C1-C11 distance: 6 
C      -2.24974744     1.28668043     1.75804609
C      -0.90982781     1.17039903     1.05808150
N      -0.50654377    -0.09835326     0.76294994
O      -0.24299368     2.14496095     0.77015676
H       0.35814685    -0.22138042     0.26278294
H      -1.06730175    -0.90344947     0.97305723
H      -2.14582332     1.97826745     2.59283224
H      -2.96867650     1.71776331     1.05924213
H      -2.63797892     0.33467772     2.12079801
C      -7.43845422     3.24218034     4.44174683
C      -7.55234646     1.74728493     4.52757440
O      -6.98223280     1.26901676     5.66145586
O      -8.07444602     1.02892572     3.71643742
H      -7.09369059     0.30530229     5.64752394
H      -7.92276883     3.70026010     5.30545203
H      -6.38769057     3.53504529     4.46426172
H      -7.90375009     3.59041069     3.52427039
17 
# or2: geometry number 6. C1-C11 distance: 5 
C      -2.24974744     1.28668043     1.75804609
C      -0.90982781     1.17039903     1.05808150
N      -0.50654377    -0.09835326     0.76294994
O      -0.24299368     2.14496095     0.77015676
H       0.35814685    -0.22138042     0.26278294
H      -1.06730175    -0.90344947     0.97305723
H      -2.14582332     1.97826745     2.59283224
H      -2.96867650     1.71776331     1.05924213
H      -2.63797892     0.33467772     2.12079801
C      -6.55468772     3.16541292     3.98015878
C      -6.66857996     1.67051751     4.06598635
O      -6.09846630     1.19224934     5.19986781
O      -7.19067952     0.95215830     3.25484937
H      -6.20992409     0.22853487     5.18593589
H      -7.03900233     3.62349268     4.84386398
H      -5.50392407     3.45827787     4.00267367
H      -7.01998359     3.51364327     3.06268234
17 
# or2: geometry number 7. C1-C11 distance: 4.7 
C      -2.24974744     1.28668043     1.75804609
C      -0.90982781     1.17039903     1.05808150
N      -0.50654377    -0.09835326     0.76294994
O      -0.24299368     2.14496095     0.77015676
H       0.35814685    -0.22138042     0.26278294
H      -1.06730175    -0.90344947     0.97305723
H      -2.14582332     1.97826745     2.59283224
H      -2.96867650     1.71776331     1.05924213
H      -2.63797892     0.33467772     2.12079801
C      -6.28955777     3.14238270     3.84168237
C      -6.40345001     1.64748729     3.92750994
O      -5.83333635     1.16921912     5.06139140
O      -6.92554957     0.92912808     3.11637296
H      -5.94479414     0.20550465     5.04745948
H      -6.77387238     3.60046246     4.70538757
H      -5.23879412     3.43524765     3.86419726
H      -6.75485364     3.49061305     2.92420593
17 
# or2: geometry number 8. C1-C11 distance: 4.4 
C      -2.24974744     1.28668043     1.75804609
C      -0.90982781     1.17039903     1.05808150
N      -0.50654377    -0.09835326     0.76294994
O      -0.24299368     2.14496095     0.77015676
H       0.35814685    -0.22138042     0.26278294
H      -1.06730175    -0.90344947     0.97305723
H      -2.14582332     1.97826745     2.59283224
H      -2.96867650     1.71776331     1.05924213
H      -2.63797892     0.33467772     2.12079801
C      -6.02442782     3.11935247     3.70320595
C      -6.13832006     1.62445706     3.78903352
O      -5.56820640     1.14618889     4.92291498
O      -6.66041962     0.90609785     2.97789654
H      -5.67966419     0.18247442     4.90898306
H      -6.50874243     3.57743223     4.56691115
H      -4.97366417     3.41221742     3.72572084
H      -6.48972369     3.46758282     2.78572951
17 
# or2: geometry number 9. C1-C11 distance: 4.2 
C      -2.24974744     1.28668043     1.75804609
C      -0.90982781     1.17039903     1.05808150
N      -0.50654377    -0.09835326     0.76294994
O      -0.24299368     2.14496095     0.77015676
H       0.35814685    -0.22138042     0.26278294
H      -1.06730175    -0.90344947     0.97305723
H      -2.14582332     1.97826745     2.59283224
H      -2.96867650     1.71776331     1.05924213
H      -2.63797892     0.33467772     2.12079801
C      -5.84767452     3.10399899     3.61088834
C      -5.96156676     1.60910358     3.69671591
O      -5.39145310     1.13083541     4.83059737
O      -6.48366632     0.89074437     2.88557893
H      -5.50291089     0.16712094     4.81666545
H      -6.33198913     3.56207875     4.47459354
H      -4.79691087     3.39686394     3.63340323
H      -6.31297039     3.45222934     2.69341190
17 
# or2: geometry number 10. C1-C11 distance: 4 
C      -2.24974744     1.28668043     1.75804609
C      -0.90982781     1.17039903     1.05808150
N      -0.50654377    -0.09835326     0.76294994
O      -0.24299368     2.14496095     0.77015676
H       0.35814685    -0.22138042     0.26278294
H      -1.06730175    -0.90344947     0.97305723
H      -2.14582332     1.97826745     2.59283224
H      -2.96867650     1.71776331     1.05924213
H      -2.63797892     0.33467772     2.12079801
C      -5.67092122     3.08864551     3.51857073
C      -5.78481346     1.59375010     3.60439830
O      -5.21469980     1.11548193     4.73827976
O      -6.30691302     0.87539089     2.79326132
H      -5.32615759     0.15176746     4.72434784
H      -6.15523583     3.54672527     4.38227593
H      -4.62015757     3.38151046     3.54108562
H      -6.13621709     3.43687586     2.60109429
17 
# or2: geometry number 11. C1-C11 distance: 3.8 
C      -2.24974744     1.28668043     1.75804609
C      -0.90982781     1.17039903     1.05808150
N      -0.50654377    -0.09835326     0.76294994
O      -0.24299368     2.14496095     0.77015676
H       0.35814685    -0.22138042     0.26278294
H      -1.06730175    -0.90344947     0.97305723
H      -2.14582332     1.97826745     2.59283224
H      -2.96867650     1.71776331     1.05924213
H      -2.63797892     0.33467772     2.12079801
C      -5.49416792     3.07329202     3.42625312
C      -5.60806016     1.57839661     3.51208069
O      -5.03794650     1.10012844     4.64596215
O      -6.13015972     0.86003740     2.70094371
H      -5.14940429     0.13641397     4.63203023
H      -5.97848253     3.53137178     4.28995832
H      -4.44340427     3.36615697     3.44876801
H      -5.95946379     3.42152237     2.50877668
17 
# or2: geometry number 12. C1-C11 distance: 3.7 
C      -2.24974744     1.28668043     1.75804609
C      -0.90982781     1.17039903     1.05808150
N      -0.50654377    -0.09835326     0.76294994
O      -0.24299368     2.14496095     0.77015676
H       0.35814685    -0.22138042     0.26278294
H      -1.06730175    -0.90344947     0.97305723
H      -2.14582332     1.97826745     2.59283224
H      -2.96867650     1.71776331     1.05924213
H      -2.63797892     0.33467772     2.12079801
C      -5.40579127     3.06561528     3.38009431
C      -5.51968351     1.57071987     3.46592188
O      -4.94956985     1.09245170     4.59980334
O      -6.04178307     0.85236066     2.65478490
H      -5.06102764     0.12873723     4.58587142
H      -5.89010588     3.52369504     4.24379951
H      -4.35502762     3.35848023     3.40260920
H      -5.87108714     3.41384563     2.46261787
17 
# or2: geometry number 13. C1-C11 distance: 3.6 
C      -2.24974744     1.28668043     1.75804609
C      -0.90982781     1.17039903     1.05808150
N      -0.50654377    -0.09835326     0.76294994
O      -0.24299368     2.14496095     0.77015676
H       0.35814685    -0.22138042     0.26278294
H      -1.06730175    -0.90344947     0.97305723
H      -2.14582332     1.97826745     2.59283224
H      -2.96867650     1.71776331     1.05924213
H      -2.63797892     0.33467772     2.12079801
C      -5.31741461     3.05793854     3.33393551
C      -5.43130685     1.56304313     3.41976308
O      -4.86119319     1.08477496     4.55364454
O      -5.95340641     0.84468392     2.60862610
H      -4.97265098     0.12106049     4.53971262
H      -5.80172922     3.51601830     4.19764071
H      -4.26665096     3.35080349     3.35645040
H      -5.78271048     3.40616889     2.41645907
17 
# or2: geometry number 14. C1-C11 distance: 3.5 
C      -2.24974744     1.28668043     1.75804609
C      -0.90982781     1.17039903     1.05808150
N      -0.50654377    -0.09835326     0.76294994
O      -0.24299368     2.14496095     0.77015676
H       0.35814685    -0.22138042     0.26278294
H      -1.06730175    -0.90344947     0.97305723
H      -2.14582332     1.97826745     2.59283224
H      -2.96867650     1.71776331     1.05924213
H      -2.63797892     0.33467772     2.12079801
C      -5.22903796     3.05026180     3.28777670
C      -5.34293020     1.55536639     3.37360427
O      -4.77281654     1.07709822     4.50748573
O      -5.86502976     0.83700718     2.56246729
H      -4.88427433     0.11338375     4.49355381
H      -5.71335257     3.50834156     4.15148190
H      -4.17827431     3.34312675     3.31029159
H      -5.69433383     3.39849215     2.37030026
17 
# or2: geometry number 15. C1-C11 distance: 3.4 
C      -2.24974744     1.28668043     1.75804609
C      -0.90982781     1.17039903     1.05808150
N      -0.50654377    -0.09835326     0.76294994
O      -0.24299368     2.14496095     0.77015676
H       0.35814685    -0.22138042     0.26278294
H      -1.06730175    -0.90344947     0.97305723
H      -2.14582332     1.97826745     2.59283224
H      -2.96867650     1.71776331     1.05924213
H      -2.63797892     0.33467772     2.12079801
C      -5.14066131     3.04258506     3.24161790
C      -5.25455355     1.54768965     3.32744547
O      -4.68443989     1.06942148     4.46132693
O      -5.77665311     0.82933044     2.51630849
H      -4.79589768     0.10570701     4.44739501
H      -5.62497592     3.50066482     4.10532310
H      -4.08989766     3.33545001     3.26413279
H      -5.60595718     3.39081541     2.32414146
17 
# or2: geometry number 16. C1-C11 distance: 3.3 
C      -2.24974744     1.28668043     1.75804609
C      -0.90982781     1.17039903     1.05808150
N      -0.50654377    -0.09835326     0.76294994
O      -0.24299368     2.14496095     0.77015676
H       0.35814685    -0.22138042     0.26278294
H      -1.06730175    -0.90344947     0.97305723
H      -2.14582332     1.97826745     2.59283224
H      -2.96867650     1.71776331     1.05924213
H      -2.63797892     0.33467772     2.12079801
C      -5.05228466     3.03490831     3.19545909
C      -5.16617690     1.54001290     3.28128666
O      -4.59606324     1.06174473     4.41516812
O      -5.68827646     0.82165369     2.47014968
H      -4.70752103     0.09803026     4.40123620
H      -5.53659927     3.49298807     4.05916429
H      -4.00152101     3.32777326     3.21797398
H      -5.51758053     3.38313866     2.27798265
17 
# or2: geometry number 17. C1-C11 distance: 3.2 
C      -2.24974744     1.28668043     1.75804609
C      -0.90982781     1.17039903     1.05808150
N      -0.50654377    -0.09835326     0.76294994
O      -0.24299368     2.14496095     0.77015676
H       0.35814685    -0.22138042     0.26278294
H      -1.06730175    -0.90344947     0.97305723
H      -2.14582332     1.97826745     2.59283224
H      -2.96867650     1.71776331     1.05924213
H      -2.63797892     0.33467772     2.12079801
C      -4.96390801     3.02723157     3.14930029
C      -5.07780025     1.53233616     3.23512786
O      -4.50768659     1.05406799     4.36900932
O      -5.59989981     0.81397695     2.42399088
H      -4.61914438     0.09035352     4.35507740
H      -5.44822262     3.48531133     4.01300549
H      -3.91314436     3.32009652     3.17181518
H      -5.42920388     3.37546192     2.23182385
17 
# or2: geometry number 18. C1-C11 distance: 3.1 
C      -2.24974744     1.28668043     1.75804609
C      -0.90982781     1.17039903     1.05808150
N      -0.50654377    -0.09835326     0.76294994
O      -0.24299368     2.14496095     0.77015676
H       0.35814685    -0.22138042     0.26278294
H      -1.06730175    -0.90344947     0.97305723
H      -2.14582332     1.97826745     2.59283224
H      -2.96867650     1.71776331     1.05924213
H      -2.63797892     0.33467772     2.12079801
C      -4.87553136     3.01955483     3.10314148
C      -4.98942360     1.52465942     3.18896905
O      -4.41930994     1.04639125     4.32285051
O      -5.51152316     0.80630021     2.37783207
H      -4.53076773     0.08267678     4.30891859
H      -5.35984597     3.47763459     3.96684668
H      -3.82476771     3.31241978     3.12565637
H      -5.34082723     3.36778518     2.18566504
17 
# or2: geometry number 19. C1-C11 distance: 3.05 
C      -2.24974744     1.28668043     1.75804609
C      -0.90982781     1.17039903     1.05808150
N      -0.50654377    -0.09835326     0.76294994
O      -0.24299368     2.14496095     0.77015676
H       0.35814685    -0.22138042     0.26278294
H      -1.06730175    -0.90344947     0.97305723
H      -2.14582332     1.97826745     2.59283224
H      -2.96867650     1.71776331     1.05924213
H      -2.63797892     0.33467772     2.12079801
C      -4.83134304     3.01571646     3.08006208
C      -4.94523528     1.52082105     3.16588965
O      -4.37512162     1.04255288     4.29977111
O      -5.46733484     0.80246184     2.35475267
H      -4.48657941     0.07883841     4.28583919
H      -5.31565765     3.47379622     3.94376728
H      -3.78057939     3.30858141     3.10257697
H      -5.29663891     3.36394681     2.16258564
17 
# or2: geometry number 20. C1-C11 distance: 3 
C      -2.24974744     1.28668043     1.75804609
C      -0.90982781     1.17039903     1.05808150
N      -0.50654377    -0.09835326     0.76294994
O      -0.24299368     2.14496095     0.77015676
H       0.35814685    -0.22138042     0.26278294
H      -1.06730175    -0.90344947     0.97305723
H      -2.14582332     1.97826745     2.59283224
H      -2.96867650     1.71776331     1.05924213
H      -2.63797892     0.33467772     2.12079801
C      -4.78715471     3.01187809     3.05698268
C      -4.90104695     1.51698268     3.14281025
O      -4.33093329     1.03871451     4.27669171
O      -5.42314651     0.79862347     2.33167327
H      -4.44239108     0.07500004     4.26275979
H      -5.27146932     3.46995785     3.92068788
H      -3.73639106     3.30474304     3.07949757
H      -5.25245058     3.36010844     2.13950624
17 
# or2: geometry number 21. C1-C11 distance: 2.95 
C      -2.24974744     1.28668043     1.75804609
C      -0.90982781     1.17039903     1.05808150
N      -0.50654377    -0.09835326     0.76294994
O      -0.24299368     2.14496095     0.77015676
H       0.35814685    -0.22138042     0.26278294
H      -1.06730175    -0.90344947     0.97305723
H      -2.14582332     1.97826745     2.59283224
H      -2.96867650     1.71776331     1.05924213
H      -2.63797892     0.33467772     2.12079801
C      -4.74296639     3.00803972     3.03390327
C      -4.85685863     1.51314431     3.11973084
O      -4.28674497     1.03487614     4.25361230
O      -5.37895819     0.79478510     2.30859386
H      -4.39820276     0.07116167     4.23968038
H      -5.22728100     3.46611948     3.89760847
H      -3.69220274     3.30090467     3.05641816
H      -5.20826226     3.35627007     2.11642683
17 
# or2: geometry number 22. C1-C11 distance: 2.9 
C      -2.24974744     1.28668043     1.75804609
C      -0.90982781     1.17039903     1.05808150
N      -0.50654377    -0.09835326     0.76294994
O      -0.24299368     2.14496095     0.77015676
H       0.35814685    -0.22138042     0.26278294
H      -1.06730175    -0.90344947     0.97305723
H      -2.14582332     1.97826745     2.59283224
H      -2.96867650     1.71776331     1.05924213
H      -2.63797892     0.33467772     2.12079801
C      -4.69877806     3.00420135     3.01082387
C      -4.81267030     1.50930594     3.09665144
O      -4.24255664     1.03103777     4.23053290
O      -5.33476986     0.79094673     2.28551446
H      -4.35401443     0.06732330     4.21660098
H      -5.18309267     3.46228111     3.87452907
H      -3.64801441     3.29706630     3.03333876
H      -5.16407393     3.35243170     2.09334743
17 
# or2: geometry number 23. C1-C11 distance: 2.85 
C      -2.24974744     1.28668043     1.75804609
C      -0.90982781     1.17039903     1.05808150
N      -0.50654377    -0.09835326     0.76294994
O      -0.24299368     2.14496095     0.77015676
H       0.35814685    -0.22138042     0.26278294
H      -1.06730175    -0.90344947     0.97305723
H      -2.14582332     1.97826745     2.59283224
H      -2.96867650     1.71776331     1.05924213
H      -2.63797892     0.33467772     2.12079801
C      -4.65458974     3.00036298     2.98774447
C      -4.76848198     1.50546757     3.07357204
O      -4.19836832     1.02719940     4.20745350
O      -5.29058154     0.78710836     2.26243506
H      -4.30982611     0.06348493     4.19352158
H      -5.13890435     3.45844274     3.85144967
H      -3.60382609     3.29322793     3.01025936
H      -5.11988561     3.34859333     2.07026803
17 
# or2: geometry number 24. C1-C11 distance: 2.8 
C      -2.24974744     1.28668043     1.75804609
C      -0.90982781     1.17039903     1.05808150
N      -0.50654377    -0.09835326     0.76294994
O      -0.24299368     2.14496095     0.77015676
H       0.35814685    -0.22138042     0.26278294
H      -1.06730175    -0.90344947     0.97305723
H      -2.14582332     1.97826745     2.59283224
H      -2.96867650     1.71776331     1.05924213
H      -2.63797892     0.33467772     2.12079801
C      -4.61040141     2.99652461     2.96466507
C      -4.72429365     1.50162920     3.05049264
O      -4.15417999     1.02336103     4.18437410
O      -5.24639321     0.78326999     2.23935566
H      -4.26563778     0.05964656     4.17044218
H      -5.09471602     3.45460437     3.82837027
H      -3.55963776     3.28938956     2.98717996
H      -5.07569728     3.34475496     2.04718863
17 
# or2: geometry number 25. C1-C11 distance: 2.75 
C      -2.24974744     1.28668043     1.75804609
C      -0.90982781     1.17039903     1.05808150
N      -0.50654377    -0.09835326     0.76294994
O      -0.24299368     2.14496095     0.77015676
H       0.35814685    -0.22138042     0.26278294
H      -1.06730175    -0.90344947     0.97305723
H      -2.14582332     1.97826745     2.59283224
H      -2.96867650     1.71776331     1.05924213
H      -2.63797892     0.33467772     2.12079801
C      -4.56621309     2.99268624     2.94158566
C      -4.68010533     1.49779083     3.02741323
O      -4.10999167     1.01952266     4.16129469
O      -5.20220489     0.77943162     2.21627625
H      -4.22144946     0.05580819     4.14736277
H      -5.05052770     3.45076600     3.80529086
H      -3.51544944     3.28555119     2.96410055
H      -5.03150896     3.34091659     2.02410922
17 
# or2: geometry number 26. C1-C11 distance: 2.7 
C      -2.24974744     1.28668043     1.75804609
C      -0.90982781     1.17039903     1.05808150
N      -0.50654377    -0.09835326     0.76294994
O      -0.24299368     2.14496095     0.77015676
H       0.35814685    -0.22138042     0.26278294
H      -1.06730175    -0.90344947     0.97305723
H      -2.14582332     1.97826745     2.59283224
H      -2.96867650     1.71776331     1.05924213
H      -2.63797892     0.33467772     2.12079801
C      -4.52202476     2.98884786     2.91850626
C      -4.63591700     1.49395245     3.00433383
O      -4.06580334     1.01568428     4.13821529
O      -5.15801656     0.77559324     2.19319685
H      -4.17726113     0.05196981     4.12428337
H      -5.00633937     3.44692762     3.78221146
H      -3.47126111     3.28171281     2.94102115
H      -4.98732063     3.33707821     2.00102982
17 
# or2: geometry number 27. C1-C11 distance: 2.65 
C      -2.24974744     1.28668043     1.75804609
C      -0.90982781     1.17039903     1.05808150
N      -0.50654377    -0.09835326     0.76294994
O      -0.24299368     2.14496095     0.77015676
H       0.35814685    -0.22138042     0.26278294
H      -1.06730175    -0.90344947     0.97305723
H      -2.14582332     1.97826745     2.59283224
H      -2.96867650     1.71776331     1.05924213
H      -2.63797892     0.33467772     2.12079801
C      -4.47783644     2.98500949     2.89542686
C      -4.59172868     1.49011408     2.98125443
O      -4.02161502     1.01184591     4.11513589
O      -5.11382824     0.77175487     2.17011745
H      -4.13307281     0.04813144     4.10120397
H      -4.96215105     3.44308925     3.75913206
H      -3.42707279     3.27787444     2.91794175
H      -4.94313231     3.33323984     1.97795042
17 
# or2: geometry number 28. C1-C11 distance: 2.6 
C      -2.24974744     1.28668043     1.75804609
C      -0.90982781     1.17039903     1.05808150
N      -0.50654377    -0.09835326     0.76294994
O      -0.24299368     2.14496095     0.77015676
H       0.35814685    -0.22138042     0.26278294
H      -1.06730175    -0.90344947     0.97305723
H      -2.14582332     1.97826745     2.59283224
H      -2.96867650     1.71776331     1.05924213
H      -2.63797892     0.33467772     2.12079801
C      -4.43364811     2.98117112     2.87234746
C      -4.54754035     1.48627571     2.95817503
O      -3.97742669     1.00800754     4.09205649
O      -5.06963991     0.76791650     2.14703805
H      -4.08888448     0.04429307     4.07812457
H      -4.91796272     3.43925088     3.73605266
H      -3.38288446     3.27403607     2.89486235
H      -4.89894398     3.32940147     1.95487102
17 
# or2: geometry number 29. C1-C11 distance: 2.55 
C      -2.24974744     1.28668043     1.75804609
C      -0.90982781     1.17039903     1.05808150
N      -0.50654377    -0.09835326     0.76294994
O      -0.24299368     2.14496095     0.77015676
H       0.35814685    -0.22138042     0.26278294
H      -1.06730175    -0.90344947     0.97305723
H      -2.14582332     1.97826745     2.59283224
H      -2.96867650     1.71776331     1.05924213
H      -2.63797892     0.33467772     2.12079801
C      -4.38945979     2.97733275     2.84926805
C      -4.50335203     1.48243734     2.93509562
O      -3.93323837     1.00416917     4.06897708
O      -5.02545159     0.76407813     2.12395864
H      -4.04469616     0.04045470     4.05504516
H      -4.87377440     3.43541251     3.71297325
H      -3.33869614     3.27019770     2.87178294
H      -4.85475566     3.32556310     1.93179161
17 
# or2: geometry number 30. C1-C11 distance: 2.5 
C      -2.24974744     1.28668043     1.75804609
C      -0.90982781     1.17039903     1.05808150
N      -0.50654377    -0.09835326     0.76294994
O      -0.24299368     2.14496095     0.77015676
H       0.35814685    -0.22138042     0.26278294
H      -1.06730175    -0.90344947     0.97305723
H      -2.14582332     1.97826745     2.59283224
H      -2.96867650     1.71776331     1.05924213
H      -2.63797892     0.33467772     2.12079801
C      -4.34527146     2.97349438     2.82618865
C      -4.45916370     1.47859897     2.91201622
O      -3.88905004     1.00033080     4.04589768
O      -4.98126326     0.76023976     2.10087924
H      -4.00050783     0.03661633     4.03196576
H      -4.82958607     3.43157414     3.68989385
H      -3.29450781     3.26635933     2.84870354
H      -4.81056733     3.32172473     1.90871221
