17 
# or30: geometry number 1. H6-H15 distance: 10 
C      -2.29371844    -0.80067851    -0.94113594
C      -1.86164657     0.24454982     0.06865019
N      -1.66921105    -0.22641179     1.33381294
O      -1.81310158     1.43007123    -0.19501954
H      -1.44975776     0.43319235     2.06165576
H      -1.67988684    -1.20608729     1.55036883
H      -3.15862947    -0.42177671    -1.48365147
H      -1.48624597    -0.93961786    -1.66203992
H      -2.53811995    -1.76509510    -0.49527688
C      -0.92342578   -12.16445646     3.05244573
C      -2.27632033   -12.61505827     3.52327960
O      -2.66909205   -11.93739969     4.63051327
O      -2.95734857   -13.46469419     3.01250532
H      -3.54380098   -12.27931830     4.87410803
H      -0.94642251   -11.09695112     2.82819622
H      -0.18727328   -12.31525907     3.84346982
H      -0.64068831   -12.72616615     2.16696881
17 
# or30: geometry number 2. H6-H15 distance: 9 
C      -2.29371844    -0.80067851    -0.94113594
C      -1.86164657     0.24454982     0.06865019
N      -1.66921105    -0.22641179     1.33381294
O      -1.81310158     1.43007123    -0.19501954
H      -1.44975776     0.43319235     2.06165576
H      -1.67988684    -1.20608729     1.55036883
H      -3.15862947    -0.42177671    -1.48365147
H      -1.48624597    -0.93961786    -1.66203992
H      -2.53811995    -1.76509510    -0.49527688
C      -0.99677221   -11.17537007     2.92466300
C      -2.34966676   -11.62597188     3.39549687
O      -2.74243848   -10.94831330     4.50273054
O      -3.03069500   -12.47560780     2.88472259
H      -3.61714741   -11.29023191     4.74632530
H      -1.01976894   -10.10786473     2.70041349
H      -0.26061971   -11.32617268     3.71568709
H      -0.71403474   -11.73707976     2.03918608
17 
# or30: geometry number 3. H6-H15 distance: 8 
C      -2.29371844    -0.80067851    -0.94113594
C      -1.86164657     0.24454982     0.06865019
N      -1.66921105    -0.22641179     1.33381294
O      -1.81310158     1.43007123    -0.19501954
H      -1.44975776     0.43319235     2.06165576
H      -1.67988684    -1.20608729     1.55036883
H      -3.15862947    -0.42177671    -1.48365147
H      -1.48624597    -0.93961786    -1.66203992
H      -2.53811995    -1.76509510    -0.49527688
C      -1.07011865   -10.18628369     2.79688026
C      -2.42301320   -10.63688550     3.26771413
O      -2.81578492    -9.95922692     4.37494780
O      -3.10404144   -11.48652142     2.75693985
H      -3.69049385   -10.30114553     4.61854256
H      -1.09311538    -9.11877835     2.57263075
H      -0.33396615   -10.33708630     3.58790435
H      -0.78738118   -10.74799338     1.91140334
17 
# or30: geometry number 4. H6-H15 distance: 7 
C      -2.29371844    -0.80067851    -0.94113594
C      -1.86164657     0.24454982     0.06865019
N      -1.66921105    -0.22641179     1.33381294
O      -1.81310158     1.43007123    -0.19501954
H      -1.44975776     0.43319235     2.06165576
H      -1.67988684    -1.20608729     1.55036883
H      -3.15862947    -0.42177671    -1.48365147
H      -1.48624597    -0.93961786    -1.66203992
H      -2.53811995    -1.76509510    -0.49527688
C      -1.14346508    -9.19719731     2.66909752
C      -2.49635963    -9.64779912     3.13993139
O      -2.88913135    -8.97014054     4.24716506
O      -3.17738787   -10.49743504     2.62915711
H      -3.76384028    -9.31205915     4.49075982
H      -1.16646181    -8.12969197     2.44484801
H      -0.40731258    -9.34799992     3.46012161
H      -0.86072761    -9.75890700     1.78362060
17 
# or30: geometry number 5. H6-H15 distance: 6 
C      -2.29371844    -0.80067851    -0.94113594
C      -1.86164657     0.24454982     0.06865019
N      -1.66921105    -0.22641179     1.33381294
O      -1.81310158     1.43007123    -0.19501954
H      -1.44975776     0.43319235     2.06165576
H      -1.67988684    -1.20608729     1.55036883
H      -3.15862947    -0.42177671    -1.48365147
H      -1.48624597    -0.93961786    -1.66203992
H      -2.53811995    -1.76509510    -0.49527688
C      -1.21681151    -8.20811093     2.54131478
C      -2.56970606    -8.65871274     3.01214865
O      -2.96247778    -7.98105416     4.11938232
O      -3.25073430    -9.50834866     2.50137437
H      -3.83718671    -8.32297277     4.36297708
H      -1.23980824    -7.14060559     2.31706527
H      -0.48065901    -8.35891354     3.33233887
H      -0.93407404    -8.76982062     1.65583786
17 
# or30: geometry number 6. H6-H15 distance: 5 
C      -2.29371844    -0.80067851    -0.94113594
C      -1.86164657     0.24454982     0.06865019
N      -1.66921105    -0.22641179     1.33381294
O      -1.81310158     1.43007123    -0.19501954
H      -1.44975776     0.43319235     2.06165576
H      -1.67988684    -1.20608729     1.55036883
H      -3.15862947    -0.42177671    -1.48365147
H      -1.48624597    -0.93961786    -1.66203992
H      -2.53811995    -1.76509510    -0.49527688
C      -1.29015794    -7.21902454     2.41353204
C      -2.64305249    -7.66962635     2.88436591
O      -3.03582421    -6.99196777     3.99159958
O      -3.32408073    -8.51926227     2.37359163
H      -3.91053314    -7.33388638     4.23519434
H      -1.31315467    -6.15151920     2.18928253
H      -0.55400544    -7.36982715     3.20455613
H      -1.00742047    -7.78073423     1.52805512
17 
# or30: geometry number 7. H6-H15 distance: 4.5 
C      -2.29371844    -0.80067851    -0.94113594
C      -1.86164657     0.24454982     0.06865019
N      -1.66921105    -0.22641179     1.33381294
O      -1.81310158     1.43007123    -0.19501954
H      -1.44975776     0.43319235     2.06165576
H      -1.67988684    -1.20608729     1.55036883
H      -3.15862947    -0.42177671    -1.48365147
H      -1.48624597    -0.93961786    -1.66203992
H      -2.53811995    -1.76509510    -0.49527688
C      -1.32683116    -6.72448135     2.34964067
C      -2.67972571    -7.17508316     2.82047454
O      -3.07249743    -6.49742458     3.92770821
O      -3.36075395    -8.02471908     2.30970026
H      -3.94720636    -6.83934319     4.17130297
H      -1.34982789    -5.65697601     2.12539116
H      -0.59067866    -6.87528396     3.14066476
H      -1.04409369    -7.28619104     1.46416375
17 
# or30: geometry number 8. H6-H15 distance: 4 
C      -2.29371844    -0.80067851    -0.94113594
C      -1.86164657     0.24454982     0.06865019
N      -1.66921105    -0.22641179     1.33381294
O      -1.81310158     1.43007123    -0.19501954
H      -1.44975776     0.43319235     2.06165576
H      -1.67988684    -1.20608729     1.55036883
H      -3.15862947    -0.42177671    -1.48365147
H      -1.48624597    -0.93961786    -1.66203992
H      -2.53811995    -1.76509510    -0.49527688
C      -1.36350438    -6.22993816     2.28574930
C      -2.71639893    -6.68053997     2.75658317
O      -3.10917065    -6.00288139     3.86381684
O      -3.39742717    -7.53017589     2.24580889
H      -3.98387958    -6.34480000     4.10741160
H      -1.38650111    -5.16243282     2.06149979
H      -0.62735188    -6.38074077     3.07677339
H      -1.08076691    -6.79164785     1.40027238
17 
# or30: geometry number 9. H6-H15 distance: 3.7 
C      -2.29371844    -0.80067851    -0.94113594
C      -1.86164657     0.24454982     0.06865019
N      -1.66921105    -0.22641179     1.33381294
O      -1.81310158     1.43007123    -0.19501954
H      -1.44975776     0.43319235     2.06165576
H      -1.67988684    -1.20608729     1.55036883
H      -3.15862947    -0.42177671    -1.48365147
H      -1.48624597    -0.93961786    -1.66203992
H      -2.53811995    -1.76509510    -0.49527688
C      -1.38550831    -5.93321225     2.24741448
C      -2.73840286    -6.38381406     2.71824835
O      -3.13117458    -5.70615548     3.82548202
O      -3.41943110    -7.23344998     2.20747407
H      -4.00588351    -6.04807409     4.06907678
H      -1.40850504    -4.86570691     2.02316497
H      -0.64935581    -6.08401486     3.03843857
H      -1.10277084    -6.49492194     1.36193756
17 
# or30: geometry number 10. H6-H15 distance: 3.4 
C      -2.29371844    -0.80067851    -0.94113594
C      -1.86164657     0.24454982     0.06865019
N      -1.66921105    -0.22641179     1.33381294
O      -1.81310158     1.43007123    -0.19501954
H      -1.44975776     0.43319235     2.06165576
H      -1.67988684    -1.20608729     1.55036883
H      -3.15862947    -0.42177671    -1.48365147
H      -1.48624597    -0.93961786    -1.66203992
H      -2.53811995    -1.76509510    -0.49527688
C      -1.40751224    -5.63648633     2.20907965
C      -2.76040679    -6.08708814     2.67991352
O      -3.15317851    -5.40942956     3.78714719
O      -3.44143503    -6.93672406     2.16913924
H      -4.02788744    -5.75134817     4.03074195
H      -1.43050897    -4.56898099     1.98483014
H      -0.67135974    -5.78728894     3.00010374
H      -1.12477477    -6.19819602     1.32360273
17 
# or30: geometry number 11. H6-H15 distance: 3.1 
C      -2.29371844    -0.80067851    -0.94113594
C      -1.86164657     0.24454982     0.06865019
N      -1.66921105    -0.22641179     1.33381294
O      -1.81310158     1.43007123    -0.19501954
H      -1.44975776     0.43319235     2.06165576
H      -1.67988684    -1.20608729     1.55036883
H      -3.15862947    -0.42177671    -1.48365147
H      -1.48624597    -0.93961786    -1.66203992
H      -2.53811995    -1.76509510    -0.49527688
C      -1.42951617    -5.33976042     2.17074483
C      -2.78241072    -5.79036223     2.64157870
O      -3.17518244    -5.11270365     3.74881237
O      -3.46343896    -6.63999815     2.13080442
H      -4.04989137    -5.45462226     3.99240713
H      -1.45251290    -4.27225508     1.94649532
H      -0.69336367    -5.49056303     2.96176892
H      -1.14677870    -5.90147011     1.28526791
17 
# or30: geometry number 12. H6-H15 distance: 2.9 
C      -2.29371844    -0.80067851    -0.94113594
C      -1.86164657     0.24454982     0.06865019
N      -1.66921105    -0.22641179     1.33381294
O      -1.81310158     1.43007123    -0.19501954
H      -1.44975776     0.43319235     2.06165576
H      -1.67988684    -1.20608729     1.55036883
H      -3.15862947    -0.42177671    -1.48365147
H      -1.48624597    -0.93961786    -1.66203992
H      -2.53811995    -1.76509510    -0.49527688
C      -1.44418545    -5.14194314     2.14518828
C      -2.79708000    -5.59254495     2.61602215
O      -3.18985172    -4.91488637     3.72325582
O      -3.47810824    -6.44218087     2.10524787
H      -4.06456065    -5.25680498     3.96685058
H      -1.46718218    -4.07443780     1.92093877
H      -0.70803295    -5.29274575     2.93621237
H      -1.16144798    -5.70365283     1.25971136
17 
# or30: geometry number 13. H6-H15 distance: 2.7 
C      -2.29371844    -0.80067851    -0.94113594
C      -1.86164657     0.24454982     0.06865019
N      -1.66921105    -0.22641179     1.33381294
O      -1.81310158     1.43007123    -0.19501954
H      -1.44975776     0.43319235     2.06165576
H      -1.67988684    -1.20608729     1.55036883
H      -3.15862947    -0.42177671    -1.48365147
H      -1.48624597    -0.93961786    -1.66203992
H      -2.53811995    -1.76509510    -0.49527688
C      -1.45885474    -4.94412586     2.11963174
C      -2.81174929    -5.39472767     2.59046561
O      -3.20452101    -4.71706909     3.69769928
O      -3.49277753    -6.24436359     2.07969133
H      -4.07922994    -5.05898770     3.94129404
H      -1.48185147    -3.87662052     1.89538223
H      -0.72270224    -5.09492847     2.91065583
H      -1.17611727    -5.50583555     1.23415482
17 
# or30: geometry number 14. H6-H15 distance: 2.5 
C      -2.29371844    -0.80067851    -0.94113594
C      -1.86164657     0.24454982     0.06865019
N      -1.66921105    -0.22641179     1.33381294
O      -1.81310158     1.43007123    -0.19501954
H      -1.44975776     0.43319235     2.06165576
H      -1.67988684    -1.20608729     1.55036883
H      -3.15862947    -0.42177671    -1.48365147
H      -1.48624597    -0.93961786    -1.66203992
H      -2.53811995    -1.76509510    -0.49527688
C      -1.47352403    -4.74630859     2.09407519
C      -2.82641858    -5.19691040     2.56490906
O      -3.21919030    -4.51925182     3.67214273
O      -3.50744682    -6.04654632     2.05413478
H      -4.09389923    -4.86117043     3.91573749
H      -1.49652076    -3.67880325     1.86982568
H      -0.73737153    -4.89711120     2.88509928
H      -1.19078656    -5.30801828     1.20859827
17 
# or30: geometry number 15. H6-H15 distance: 2.4 
C      -2.29371844    -0.80067851    -0.94113594
C      -1.86164657     0.24454982     0.06865019
N      -1.66921105    -0.22641179     1.33381294
O      -1.81310158     1.43007123    -0.19501954
H      -1.44975776     0.43319235     2.06165576
H      -1.67988684    -1.20608729     1.55036883
H      -3.15862947    -0.42177671    -1.48365147
H      -1.48624597    -0.93961786    -1.66203992
H      -2.53811995    -1.76509510    -0.49527688
C      -1.48085867    -4.64739995     2.08129691
C      -2.83375322    -5.09800176     2.55213078
O      -3.22652494    -4.42034318     3.65936445
O      -3.51478146    -5.94763768     2.04135650
H      -4.10123387    -4.76226179     3.90295921
H      -1.50385540    -3.57989461     1.85704740
H      -0.74470617    -4.79820256     2.87232100
H      -1.19812120    -5.20910964     1.19581999
17 
# or30: geometry number 16. H6-H15 distance: 2.3 
C      -2.29371844    -0.80067851    -0.94113594
C      -1.86164657     0.24454982     0.06865019
N      -1.66921105    -0.22641179     1.33381294
O      -1.81310158     1.43007123    -0.19501954
H      -1.44975776     0.43319235     2.06165576
H      -1.67988684    -1.20608729     1.55036883
H      -3.15862947    -0.42177671    -1.48365147
H      -1.48624597    -0.93961786    -1.66203992
H      -2.53811995    -1.76509510    -0.49527688
C      -1.48819331    -4.54849131     2.06851864
C      -2.84108786    -4.99909312     2.53935251
O      -3.23385958    -4.32143454     3.64658618
O      -3.52211610    -5.84872904     2.02857823
H      -4.10856851    -4.66335315     3.89018094
H      -1.51119004    -3.48098597     1.84426913
H      -0.75204081    -4.69929392     2.85954273
H      -1.20545584    -5.11020100     1.18304172
17 
# or30: geometry number 17. H6-H15 distance: 2.2 
C      -2.29371844    -0.80067851    -0.94113594
C      -1.86164657     0.24454982     0.06865019
N      -1.66921105    -0.22641179     1.33381294
O      -1.81310158     1.43007123    -0.19501954
H      -1.44975776     0.43319235     2.06165576
H      -1.67988684    -1.20608729     1.55036883
H      -3.15862947    -0.42177671    -1.48365147
H      -1.48624597    -0.93961786    -1.66203992
H      -2.53811995    -1.76509510    -0.49527688
C      -1.49552796    -4.44958267     2.05574037
C      -2.84842251    -4.90018448     2.52657424
O      -3.24119423    -4.22252590     3.63380791
O      -3.52945075    -5.74982040     2.01579996
H      -4.11590316    -4.56444451     3.87740267
H      -1.51852469    -3.38207733     1.83149086
H      -0.75937546    -4.60038528     2.84676446
H      -1.21279049    -5.01129236     1.17026345
17 
# or30: geometry number 18. H6-H15 distance: 2.1 
C      -2.29371844    -0.80067851    -0.94113594
C      -1.86164657     0.24454982     0.06865019
N      -1.66921105    -0.22641179     1.33381294
O      -1.81310158     1.43007123    -0.19501954
H      -1.44975776     0.43319235     2.06165576
H      -1.67988684    -1.20608729     1.55036883
H      -3.15862947    -0.42177671    -1.48365147
H      -1.48624597    -0.93961786    -1.66203992
H      -2.53811995    -1.76509510    -0.49527688
C      -1.50286260    -4.35067403     2.04296209
C      -2.85575715    -4.80127584     2.51379596
O      -3.24852887    -4.12361726     3.62102963
O      -3.53678539    -5.65091176     2.00302168
H      -4.12323780    -4.46553587     3.86462439
H      -1.52585933    -3.28316869     1.81871258
H      -0.76671010    -4.50147664     2.83398618
H      -1.22012513    -4.91238372     1.15748517
17 
# or30: geometry number 19. H6-H15 distance: 2.0 
C      -2.29371844    -0.80067851    -0.94113594
C      -1.86164657     0.24454982     0.06865019
N      -1.66921105    -0.22641179     1.33381294
O      -1.81310158     1.43007123    -0.19501954
H      -1.44975776     0.43319235     2.06165576
H      -1.67988684    -1.20608729     1.55036883
H      -3.15862947    -0.42177671    -1.48365147
H      -1.48624597    -0.93961786    -1.66203992
H      -2.53811995    -1.76509510    -0.49527688
C      -1.51019724    -4.25176540     2.03018382
C      -2.86309179    -4.70236721     2.50101769
O      -3.25586351    -4.02470863     3.60825136
O      -3.54412003    -5.55200313     1.99024341
H      -4.13057244    -4.36662724     3.85184612
H      -1.53319397    -3.18426006     1.80593431
H      -0.77404474    -4.40256801     2.82120791
H      -1.22745977    -4.81347509     1.14470690
17 
# or30: geometry number 20. H6-H15 distance: 1.9 
C      -2.29371844    -0.80067851    -0.94113594
C      -1.86164657     0.24454982     0.06865019
N      -1.66921105    -0.22641179     1.33381294
O      -1.81310158     1.43007123    -0.19501954
H      -1.44975776     0.43319235     2.06165576
H      -1.67988684    -1.20608729     1.55036883
H      -3.15862947    -0.42177671    -1.48365147
H      -1.48624597    -0.93961786    -1.66203992
H      -2.53811995    -1.76509510    -0.49527688
C      -1.51753189    -4.15285676     2.01740555
C      -2.87042644    -4.60345857     2.48823942
O      -3.26319816    -3.92579999     3.59547309
O      -3.55145468    -5.45309449     1.97746514
H      -4.13790709    -4.26771860     3.83906785
H      -1.54052862    -3.08535142     1.79315604
H      -0.78137939    -4.30365937     2.80842964
H      -1.23479442    -4.71456645     1.13192863
17 
# or30: geometry number 21. H6-H15 distance: 1.8 
C      -2.29371844    -0.80067851    -0.94113594
C      -1.86164657     0.24454982     0.06865019
N      -1.66921105    -0.22641179     1.33381294
O      -1.81310158     1.43007123    -0.19501954
H      -1.44975776     0.43319235     2.06165576
H      -1.67988684    -1.20608729     1.55036883
H      -3.15862947    -0.42177671    -1.48365147
H      -1.48624597    -0.93961786    -1.66203992
H      -2.53811995    -1.76509510    -0.49527688
C      -1.52486653    -4.05394812     2.00462727
C      -2.87776108    -4.50454993     2.47546114
O      -3.27053280    -3.82689135     3.58269481
O      -3.55878932    -5.35418585     1.96468686
H      -4.14524173    -4.16880996     3.82628957
H      -1.54786326    -2.98644278     1.78037776
H      -0.78871403    -4.20475073     2.79565136
H      -1.24212906    -4.61565781     1.11915035
17 
# or30: geometry number 22. H6-H15 distance: 1.7 
C      -2.29371844    -0.80067851    -0.94113594
C      -1.86164657     0.24454982     0.06865019
N      -1.66921105    -0.22641179     1.33381294
O      -1.81310158     1.43007123    -0.19501954
H      -1.44975776     0.43319235     2.06165576
H      -1.67988684    -1.20608729     1.55036883
H      -3.15862947    -0.42177671    -1.48365147
H      -1.48624597    -0.93961786    -1.66203992
H      -2.53811995    -1.76509510    -0.49527688
C      -1.53220117    -3.95503948     1.99184900
C      -2.88509572    -4.40564129     2.46268287
O      -3.27786744    -3.72798271     3.56991654
O      -3.56612396    -5.25527721     1.95190859
H      -4.15257637    -4.06990132     3.81351130
H      -1.55519790    -2.88753414     1.76759949
H      -0.79604867    -4.10584209     2.78287309
H      -1.24946370    -4.51674917     1.10637208
17 
# or30: geometry number 23. H6-H15 distance: 1.6 
C      -2.29371844    -0.80067851    -0.94113594
C      -1.86164657     0.24454982     0.06865019
N      -1.66921105    -0.22641179     1.33381294
O      -1.81310158     1.43007123    -0.19501954
H      -1.44975776     0.43319235     2.06165576
H      -1.67988684    -1.20608729     1.55036883
H      -3.15862947    -0.42177671    -1.48365147
H      -1.48624597    -0.93961786    -1.66203992
H      -2.53811995    -1.76509510    -0.49527688
C      -1.53953582    -3.85613084     1.97907072
C      -2.89243037    -4.30673265     2.44990459
O      -3.28520209    -3.62907407     3.55713826
O      -3.57345861    -5.15636857     1.93913031
H      -4.15991102    -3.97099268     3.80073302
H      -1.56253255    -2.78862550     1.75482121
H      -0.80338332    -4.00693345     2.77009481
H      -1.25679835    -4.41784053     1.09359380
17 
# or30: geometry number 24. H6-H15 distance: 1.5 
C      -2.29371844    -0.80067851    -0.94113594
C      -1.86164657     0.24454982     0.06865019
N      -1.66921105    -0.22641179     1.33381294
O      -1.81310158     1.43007123    -0.19501954
H      -1.44975776     0.43319235     2.06165576
H      -1.67988684    -1.20608729     1.55036883
H      -3.15862947    -0.42177671    -1.48365147
H      -1.48624597    -0.93961786    -1.66203992
H      -2.53811995    -1.76509510    -0.49527688
C      -1.54687046    -3.75722220     1.96629245
C      -2.89976501    -4.20782401     2.43712632
O      -3.29253673    -3.53016543     3.54435999
O      -3.58079325    -5.05745993     1.92635204
H      -4.16724566    -3.87208404     3.78795475
H      -1.56986719    -2.68971686     1.74204294
H      -0.81071796    -3.90802481     2.75731654
H      -1.26413299    -4.31893189     1.08081553
17 
# or30: geometry number 25. H6-H15 distance: 1.4 
C      -2.29371844    -0.80067851    -0.94113594
C      -1.86164657     0.24454982     0.06865019
N      -1.66921105    -0.22641179     1.33381294
O      -1.81310158     1.43007123    -0.19501954
H      -1.44975776     0.43319235     2.06165576
H      -1.67988684    -1.20608729     1.55036883
H      -3.15862947    -0.42177671    -1.48365147
H      -1.48624597    -0.93961786    -1.66203992
H      -2.53811995    -1.76509510    -0.49527688
C      -1.55420510    -3.65831357     1.95351418
C      -2.90709965    -4.10891538     2.42434805
O      -3.29987137    -3.43125680     3.53158172
O      -3.58812789    -4.95855130     1.91357377
H      -4.17458030    -3.77317541     3.77517648
H      -1.57720183    -2.59080823     1.72926467
H      -0.81805260    -3.80911618     2.74453827
H      -1.27146763    -4.22002326     1.06803726
17 
# or30: geometry number 26. H6-H15 distance: 1.35 
C      -2.29371844    -0.80067851    -0.94113594
C      -1.86164657     0.24454982     0.06865019
N      -1.66921105    -0.22641179     1.33381294
O      -1.81310158     1.43007123    -0.19501954
H      -1.44975776     0.43319235     2.06165576
H      -1.67988684    -1.20608729     1.55036883
H      -3.15862947    -0.42177671    -1.48365147
H      -1.48624597    -0.93961786    -1.66203992
H      -2.53811995    -1.76509510    -0.49527688
C      -1.55787243    -3.60885925     1.94712504
C      -2.91076698    -4.05946106     2.41795891
O      -3.30353870    -3.38180248     3.52519258
O      -3.59179522    -4.90909698     1.90718463
H      -4.17824763    -3.72372109     3.76878734
H      -1.58086916    -2.54135391     1.72287553
H      -0.82171993    -3.75966186     2.73814913
H      -1.27513496    -4.17056894     1.06164812
17 
# or30: geometry number 27. H6-H15 distance: 1.3 
C      -2.29371844    -0.80067851    -0.94113594
C      -1.86164657     0.24454982     0.06865019
N      -1.66921105    -0.22641179     1.33381294
O      -1.81310158     1.43007123    -0.19501954
H      -1.44975776     0.43319235     2.06165576
H      -1.67988684    -1.20608729     1.55036883
H      -3.15862947    -0.42177671    -1.48365147
H      -1.48624597    -0.93961786    -1.66203992
H      -2.53811995    -1.76509510    -0.49527688
C      -1.56153975    -3.55940493     1.94073590
C      -2.91443430    -4.01000674     2.41156977
O      -3.30720602    -3.33234816     3.51880344
O      -3.59546254    -4.85964266     1.90079549
H      -4.18191495    -3.67426677     3.76239820
H      -1.58453648    -2.49189959     1.71648639
H      -0.82538725    -3.71020754     2.73175999
H      -1.27880228    -4.12111462     1.05525898
17 
# or30: geometry number 28. H6-H15 distance: 1.25 
C      -2.29371844    -0.80067851    -0.94113594
C      -1.86164657     0.24454982     0.06865019
N      -1.66921105    -0.22641179     1.33381294
O      -1.81310158     1.43007123    -0.19501954
H      -1.44975776     0.43319235     2.06165576
H      -1.67988684    -1.20608729     1.55036883
H      -3.15862947    -0.42177671    -1.48365147
H      -1.48624597    -0.93961786    -1.66203992
H      -2.53811995    -1.76509510    -0.49527688
C      -1.56520707    -3.50995061     1.93434676
C      -2.91810162    -3.96055242     2.40518063
O      -3.31087334    -3.28289384     3.51241430
O      -3.59912986    -4.81018834     1.89440635
H      -4.18558227    -3.62481245     3.75600906
H      -1.58820380    -2.44244527     1.71009725
H      -0.82905457    -3.66075322     2.72537085
H      -1.28246960    -4.07166030     1.04886984
17 
# or30: geometry number 29. H6-H15 distance: 1.2 
C      -2.29371844    -0.80067851    -0.94113594
C      -1.86164657     0.24454982     0.06865019
N      -1.66921105    -0.22641179     1.33381294
O      -1.81310158     1.43007123    -0.19501954
H      -1.44975776     0.43319235     2.06165576
H      -1.67988684    -1.20608729     1.55036883
H      -3.15862947    -0.42177671    -1.48365147
H      -1.48624597    -0.93961786    -1.66203992
H      -2.53811995    -1.76509510    -0.49527688
C      -1.56887439    -3.46049629     1.92795763
C      -2.92176894    -3.91109810     2.39879150
O      -3.31454066    -3.23343952     3.50602517
O      -3.60279718    -4.76073402     1.88801722
H      -4.18924959    -3.57535813     3.74961993
H      -1.59187112    -2.39299095     1.70370812
H      -0.83272189    -3.61129890     2.71898172
H      -1.28613692    -4.02220598     1.04248071
17 
# or30: geometry number 30. H6-H15 distance: 1.15 
C      -2.29371844    -0.80067851    -0.94113594
C      -1.86164657     0.24454982     0.06865019
N      -1.66921105    -0.22641179     1.33381294
O      -1.81310158     1.43007123    -0.19501954
H      -1.44975776     0.43319235     2.06165576
H      -1.67988684    -1.20608729     1.55036883
H      -3.15862947    -0.42177671    -1.48365147
H      -1.48624597    -0.93961786    -1.66203992
H      -2.53811995    -1.76509510    -0.49527688
C      -1.57254171    -3.41104197     1.92156849
C      -2.92543626    -3.86164378     2.39240236
O      -3.31820798    -3.18398520     3.49963603
O      -3.60646450    -4.71127970     1.88162808
H      -4.19291691    -3.52590381     3.74323079
H      -1.59553844    -2.34353663     1.69731898
H      -0.83638921    -3.56184458     2.71259258
H      -1.28980424    -3.97275166     1.03609157
17 
# or30: geometry number 31. H6-H15 distance: 1.1 
C      -2.29371844    -0.80067851    -0.94113594
C      -1.86164657     0.24454982     0.06865019
N      -1.66921105    -0.22641179     1.33381294
O      -1.81310158     1.43007123    -0.19501954
H      -1.44975776     0.43319235     2.06165576
H      -1.67988684    -1.20608729     1.55036883
H      -3.15862947    -0.42177671    -1.48365147
H      -1.48624597    -0.93961786    -1.66203992
H      -2.53811995    -1.76509510    -0.49527688
C      -1.57620903    -3.36158765     1.91517935
C      -2.92910358    -3.81218946     2.38601322
O      -3.32187530    -3.13453088     3.49324689
O      -3.61013182    -4.66182538     1.87523894
H      -4.19658423    -3.47644949     3.73684165
H      -1.59920576    -2.29408231     1.69092984
H      -0.84005653    -3.51239026     2.70620344
H      -1.29347156    -3.92329734     1.02970243
