17 
# or31: geometry number 1. H8-C10 distance: 10 
C      -3.96280261    -2.94670955     2.38214048
C      -3.39058884    -1.89161585     3.30853408
N      -3.12187570    -2.32476334     4.57330661
O      -3.29667222    -0.72204930     2.99130689
H      -2.80627240    -1.65228868     5.25239786
H      -3.17030175    -3.29307256     4.83177649
H      -4.84646831    -2.53749656     1.89465671
H      -3.22649471    -3.16122835     1.60570579
H      -4.22407624    -3.87703421     2.88697102
C       3.41006150    -5.23625850    -5.58111350
C       4.42626973    -5.47955658    -6.65962037
O       5.18296507    -6.57305128    -6.39290205
O       4.58205805    -4.81402790    -7.64925294
H       5.81102334    -6.66632611    -7.12652666
H       2.75861644    -6.10603250    -5.48366168
H       3.91336572    -5.09739120    -4.62310423
H       2.82338820    -4.35570313    -5.82598961
17 
# or31: geometry number 2. H8-C10 distance: 9 
C      -3.96280261    -2.94670955     2.38214048
C      -3.39058884    -1.89161585     3.30853408
N      -3.12187570    -2.32476334     4.57330661
O      -3.29667222    -0.72204930     2.99130689
H      -2.80627240    -1.65228868     5.25239786
H      -3.17030175    -3.29307256     4.83177649
H      -4.84646831    -2.53749656     1.89465671
H      -3.22649471    -3.16122835     1.60570579
H      -4.22407624    -3.87703421     2.88697102
C       2.74640588    -5.02875549    -4.86243157
C       3.76261411    -5.27205357    -5.94093844
O       4.51930945    -6.36554827    -5.67422012
O       3.91840243    -4.60652489    -6.93057101
H       5.14736772    -6.45882310    -6.40784473
H       2.09496082    -5.89852949    -4.76497975
H       3.24971010    -4.88988819    -3.90442230
H       2.15973258    -4.14820012    -5.10730768
17 
# or31: geometry number 3. H8-C10 distance: 8 
C      -3.96280261    -2.94670955     2.38214048
C      -3.39058884    -1.89161585     3.30853408
N      -3.12187570    -2.32476334     4.57330661
O      -3.29667222    -0.72204930     2.99130689
H      -2.80627240    -1.65228868     5.25239786
H      -3.17030175    -3.29307256     4.83177649
H      -4.84646831    -2.53749656     1.89465671
H      -3.22649471    -3.16122835     1.60570579
H      -4.22407624    -3.87703421     2.88697102
C       2.08275026    -4.82125247    -4.14374964
C       3.09895849    -5.06455055    -5.22225651
O       3.85565383    -6.15804525    -4.95553819
O       3.25474681    -4.39902187    -6.21188908
H       4.48371210    -6.25132008    -5.68916280
H       1.43130520    -5.69102647    -4.04629782
H       2.58605448    -4.68238517    -3.18574037
H       1.49607696    -3.94069710    -4.38862575
17 
# or31: geometry number 4. H8-C10 distance: 7 
C      -3.96280261    -2.94670955     2.38214048
C      -3.39058884    -1.89161585     3.30853408
N      -3.12187570    -2.32476334     4.57330661
O      -3.29667222    -0.72204930     2.99130689
H      -2.80627240    -1.65228868     5.25239786
H      -3.17030175    -3.29307256     4.83177649
H      -4.84646831    -2.53749656     1.89465671
H      -3.22649471    -3.16122835     1.60570579
H      -4.22407624    -3.87703421     2.88697102
C       1.41909464    -4.61374946    -3.42506771
C       2.43530287    -4.85704754    -4.50357458
O       3.19199821    -5.95054224    -4.23685626
O       2.59109119    -4.19151886    -5.49320715
H       3.82005648    -6.04381707    -4.97048087
H       0.76764958    -5.48352346    -3.32761589
H       1.92239886    -4.47488216    -2.46705844
H       0.83242134    -3.73319409    -3.66994382
17 
# or31: geometry number 5. H8-C10 distance: 6 
C      -3.96280261    -2.94670955     2.38214048
C      -3.39058884    -1.89161585     3.30853408
N      -3.12187570    -2.32476334     4.57330661
O      -3.29667222    -0.72204930     2.99130689
H      -2.80627240    -1.65228868     5.25239786
H      -3.17030175    -3.29307256     4.83177649
H      -4.84646831    -2.53749656     1.89465671
H      -3.22649471    -3.16122835     1.60570579
H      -4.22407624    -3.87703421     2.88697102
C       0.75543902    -4.40624644    -2.70638578
C       1.77164725    -4.64954452    -3.78489265
O       2.52834259    -5.74303922    -3.51817433
O       1.92743557    -3.98401584    -4.77452522
H       3.15640086    -5.83631405    -4.25179894
H       0.10399396    -5.27602044    -2.60893396
H       1.25874324    -4.26737914    -1.74837651
H       0.16876572    -3.52569107    -2.95126189
17 
# or31: geometry number 6. H8-C10 distance: 5 
C      -3.96280261    -2.94670955     2.38214048
C      -3.39058884    -1.89161585     3.30853408
N      -3.12187570    -2.32476334     4.57330661
O      -3.29667222    -0.72204930     2.99130689
H      -2.80627240    -1.65228868     5.25239786
H      -3.17030175    -3.29307256     4.83177649
H      -4.84646831    -2.53749656     1.89465671
H      -3.22649471    -3.16122835     1.60570579
H      -4.22407624    -3.87703421     2.88697102
C       0.09178340    -4.19874343    -1.98770385
C       1.10799163    -4.44204151    -3.06621072
O       1.86468697    -5.53553621    -2.79949240
O       1.26377995    -3.77651283    -4.05584329
H       2.49274524    -5.62881104    -3.53311701
H      -0.55966166    -5.06851743    -1.89025203
H       0.59508762    -4.05987613    -1.02969458
H      -0.49488990    -3.31818806    -2.23257996
17 
# or31: geometry number 7. H8-C10 distance: 4.5 
C      -3.96280261    -2.94670955     2.38214048
C      -3.39058884    -1.89161585     3.30853408
N      -3.12187570    -2.32476334     4.57330661
O      -3.29667222    -0.72204930     2.99130689
H      -2.80627240    -1.65228868     5.25239786
H      -3.17030175    -3.29307256     4.83177649
H      -4.84646831    -2.53749656     1.89465671
H      -3.22649471    -3.16122835     1.60570579
H      -4.22407624    -3.87703421     2.88697102
C      -0.24004441    -4.09499192    -1.62836289
C       0.77616382    -4.33829000    -2.70686976
O       1.53285916    -5.43178470    -2.44015144
O       0.93195214    -3.67276132    -3.69650233
H       2.16091743    -5.52505953    -3.17377605
H      -0.89148947    -4.96476592    -1.53091107
H       0.26325981    -3.95612462    -0.67035362
H      -0.82671771    -3.21443655    -1.87323900
17 
# or31: geometry number 8. H8-C10 distance: 4 
C      -3.96280261    -2.94670955     2.38214048
C      -3.39058884    -1.89161585     3.30853408
N      -3.12187570    -2.32476334     4.57330661
O      -3.29667222    -0.72204930     2.99130689
H      -2.80627240    -1.65228868     5.25239786
H      -3.17030175    -3.29307256     4.83177649
H      -4.84646831    -2.53749656     1.89465671
H      -3.22649471    -3.16122835     1.60570579
H      -4.22407624    -3.87703421     2.88697102
C      -0.57187222    -3.99124041    -1.26902193
C       0.44433601    -4.23453849    -2.34752880
O       1.20103135    -5.32803319    -2.08081048
O       0.60012433    -3.56900981    -3.33716137
H       1.82908962    -5.42130802    -2.81443509
H      -1.22331728    -4.86101441    -1.17157011
H      -0.06856800    -3.85237311    -0.31101266
H      -1.15854552    -3.11068504    -1.51389804
17 
# or31: geometry number 9. H8-C10 distance: 3.7 
C      -3.96280261    -2.94670955     2.38214048
C      -3.39058884    -1.89161585     3.30853408
N      -3.12187570    -2.32476334     4.57330661
O      -3.29667222    -0.72204930     2.99130689
H      -2.80627240    -1.65228868     5.25239786
H      -3.17030175    -3.29307256     4.83177649
H      -4.84646831    -2.53749656     1.89465671
H      -3.22649471    -3.16122835     1.60570579
H      -4.22407624    -3.87703421     2.88697102
C      -0.77096891    -3.92898951    -1.05341735
C       0.24523932    -4.17228759    -2.13192422
O       1.00193466    -5.26578229    -1.86520590
O       0.40102764    -3.50675891    -3.12155679
H       1.62999293    -5.35905712    -2.59883051
H      -1.42241397    -4.79876351    -0.95596553
H      -0.26766469    -3.79012221    -0.09540808
H      -1.35764221    -3.04843414    -1.29829346
17 
# or31: geometry number 10. H8-C10 distance: 3.4 
C      -3.96280261    -2.94670955     2.38214048
C      -3.39058884    -1.89161585     3.30853408
N      -3.12187570    -2.32476334     4.57330661
O      -3.29667222    -0.72204930     2.99130689
H      -2.80627240    -1.65228868     5.25239786
H      -3.17030175    -3.29307256     4.83177649
H      -4.84646831    -2.53749656     1.89465671
H      -3.22649471    -3.16122835     1.60570579
H      -4.22407624    -3.87703421     2.88697102
C      -0.97006560    -3.86673860    -0.83781277
C       0.04614263    -4.11003668    -1.91631964
O       0.80283797    -5.20353138    -1.64960132
O       0.20193095    -3.44450800    -2.90595221
H       1.43089624    -5.29680621    -2.38322593
H      -1.62151066    -4.73651260    -0.74036095
H      -0.46676138    -3.72787130     0.12019650
H      -1.55673890    -2.98618323    -1.08268888
17 
# or31: geometry number 11. H8-C10 distance: 3.1 
C      -3.96280261    -2.94670955     2.38214048
C      -3.39058884    -1.89161585     3.30853408
N      -3.12187570    -2.32476334     4.57330661
O      -3.29667222    -0.72204930     2.99130689
H      -2.80627240    -1.65228868     5.25239786
H      -3.17030175    -3.29307256     4.83177649
H      -4.84646831    -2.53749656     1.89465671
H      -3.22649471    -3.16122835     1.60570579
H      -4.22407624    -3.87703421     2.88697102
C      -1.16916228    -3.80448770    -0.62220819
C      -0.15295405    -4.04778578    -1.70071506
O       0.60374129    -5.14128048    -1.43399674
O       0.00283427    -3.38225710    -2.69034763
H       1.23179956    -5.23455531    -2.16762135
H      -1.82060734    -4.67426170    -0.52475637
H      -0.66585806    -3.66562040     0.33580108
H      -1.75583558    -2.92393233    -0.86708430
17 
# or31: geometry number 12. H8-C10 distance: 2.9 
C      -3.96280261    -2.94670955     2.38214048
C      -3.39058884    -1.89161585     3.30853408
N      -3.12187570    -2.32476334     4.57330661
O      -3.29667222    -0.72204930     2.99130689
H      -2.80627240    -1.65228868     5.25239786
H      -3.17030175    -3.29307256     4.83177649
H      -4.84646831    -2.53749656     1.89465671
H      -3.22649471    -3.16122835     1.60570579
H      -4.22407624    -3.87703421     2.88697102
C      -1.30189341    -3.76298709    -0.47847180
C      -0.28568518    -4.00628517    -1.55697867
O       0.47101016    -5.09977987    -1.29026035
O      -0.12989686    -3.34075649    -2.54661124
H       1.09906843    -5.19305470    -2.02388496
H      -1.95333847    -4.63276109    -0.38101998
H      -0.79858919    -3.62411979     0.47953747
H      -1.88856671    -2.88243172    -0.72334791
17 
# or31: geometry number 13. H8-C10 distance: 2.7 
C      -3.96280261    -2.94670955     2.38214048
C      -3.39058884    -1.89161585     3.30853408
N      -3.12187570    -2.32476334     4.57330661
O      -3.29667222    -0.72204930     2.99130689
H      -2.80627240    -1.65228868     5.25239786
H      -3.17030175    -3.29307256     4.83177649
H      -4.84646831    -2.53749656     1.89465671
H      -3.22649471    -3.16122835     1.60570579
H      -4.22407624    -3.87703421     2.88697102
C      -1.43462453    -3.72148649    -0.33473542
C      -0.41841630    -3.96478457    -1.41324229
O       0.33827904    -5.05827927    -1.14652397
O      -0.26262798    -3.29925589    -2.40287486
H       0.96633731    -5.15155410    -1.88014858
H      -2.08606959    -4.59126049    -0.23728360
H      -0.93132031    -3.58261919     0.62327385
H      -2.02129783    -2.84093112    -0.57961153
17 
# or31: geometry number 14. H8-C10 distance: 2.5 
C      -3.96280261    -2.94670955     2.38214048
C      -3.39058884    -1.89161585     3.30853408
N      -3.12187570    -2.32476334     4.57330661
O      -3.29667222    -0.72204930     2.99130689
H      -2.80627240    -1.65228868     5.25239786
H      -3.17030175    -3.29307256     4.83177649
H      -4.84646831    -2.53749656     1.89465671
H      -3.22649471    -3.16122835     1.60570579
H      -4.22407624    -3.87703421     2.88697102
C      -1.56735566    -3.67998589    -0.19099903
C      -0.55114743    -3.92328397    -1.26950590
O       0.20554791    -5.01677867    -1.00278758
O      -0.39535911    -3.25775529    -2.25913847
H       0.83360618    -5.11005350    -1.73641219
H      -2.21880072    -4.54975989    -0.09354721
H      -1.06405144    -3.54111859     0.76701024
H      -2.15402896    -2.79943052    -0.43587514
17 
# or31: geometry number 15. H8-C10 distance: 2.4 
C      -3.96280261    -2.94670955     2.38214048
C      -3.39058884    -1.89161585     3.30853408
N      -3.12187570    -2.32476334     4.57330661
O      -3.29667222    -0.72204930     2.99130689
H      -2.80627240    -1.65228868     5.25239786
H      -3.17030175    -3.29307256     4.83177649
H      -4.84646831    -2.53749656     1.89465671
H      -3.22649471    -3.16122835     1.60570579
H      -4.22407624    -3.87703421     2.88697102
C      -1.63372122    -3.65923559    -0.11913084
C      -0.61751299    -3.90253367    -1.19763771
O       0.13918235    -4.99602837    -0.93091939
O      -0.46172467    -3.23700499    -2.18727028
H       0.76724062    -5.08930320    -1.66454400
H      -2.28516628    -4.52900959    -0.02167902
H      -1.13041700    -3.52036829     0.83887843
H      -2.22039452    -2.77868022    -0.36400695
17 
# or31: geometry number 16. H8-C10 distance: 2.3 
C      -3.96280261    -2.94670955     2.38214048
C      -3.39058884    -1.89161585     3.30853408
N      -3.12187570    -2.32476334     4.57330661
O      -3.29667222    -0.72204930     2.99130689
H      -2.80627240    -1.65228868     5.25239786
H      -3.17030175    -3.29307256     4.83177649
H      -4.84646831    -2.53749656     1.89465671
H      -3.22649471    -3.16122835     1.60570579
H      -4.22407624    -3.87703421     2.88697102
C      -1.70008678    -3.63848528    -0.04726265
C      -0.68387855    -3.88178336    -1.12576952
O       0.07281679    -4.97527806    -0.85905120
O      -0.52809023    -3.21625468    -2.11540209
H       0.70087506    -5.06855289    -1.59267581
H      -2.35153184    -4.50825928     0.05018917
H      -1.19678256    -3.49961798     0.91074662
H      -2.28676008    -2.75792991    -0.29213876
17 
# or31: geometry number 17. H8-C10 distance: 2.2 
C      -3.96280261    -2.94670955     2.38214048
C      -3.39058884    -1.89161585     3.30853408
N      -3.12187570    -2.32476334     4.57330661
O      -3.29667222    -0.72204930     2.99130689
H      -2.80627240    -1.65228868     5.25239786
H      -3.17030175    -3.29307256     4.83177649
H      -4.84646831    -2.53749656     1.89465671
H      -3.22649471    -3.16122835     1.60570579
H      -4.22407624    -3.87703421     2.88697102
C      -1.76645234    -3.61773498     0.02460555
C      -0.75024411    -3.86103306    -1.05390132
O       0.00645123    -4.95452776    -0.78718300
O      -0.59445579    -3.19550438    -2.04353389
H       0.63450950    -5.04780259    -1.52080761
H      -2.41789740    -4.48750898     0.12205737
H      -1.26314812    -3.47886768     0.98261482
H      -2.35312564    -2.73717961    -0.22027056
17 
# or31: geometry number 18. H8-C10 distance: 2.15 
C      -3.96280261    -2.94670955     2.38214048
C      -3.39058884    -1.89161585     3.30853408
N      -3.12187570    -2.32476334     4.57330661
O      -3.29667222    -0.72204930     2.99130689
H      -2.80627240    -1.65228868     5.25239786
H      -3.17030175    -3.29307256     4.83177649
H      -4.84646831    -2.53749656     1.89465671
H      -3.22649471    -3.16122835     1.60570579
H      -4.22407624    -3.87703421     2.88697102
C      -1.79963512    -3.60735983     0.06053964
C      -0.78342689    -3.85065791    -1.01796723
O      -0.02673155    -4.94415261    -0.75124891
O      -0.62763857    -3.18512923    -2.00759980
H       0.60132672    -5.03742744    -1.48487352
H      -2.45108018    -4.47713383     0.15799146
H      -1.29633090    -3.46849253     1.01854891
H      -2.38630842    -2.72680446    -0.18433647
17 
# or31: geometry number 19. H8-C10 distance: 2.1 
C      -3.96280261    -2.94670955     2.38214048
C      -3.39058884    -1.89161585     3.30853408
N      -3.12187570    -2.32476334     4.57330661
O      -3.29667222    -0.72204930     2.99130689
H      -2.80627240    -1.65228868     5.25239786
H      -3.17030175    -3.29307256     4.83177649
H      -4.84646831    -2.53749656     1.89465671
H      -3.22649471    -3.16122835     1.60570579
H      -4.22407624    -3.87703421     2.88697102
C      -1.83281791    -3.59698468     0.09647374
C      -0.81660968    -3.84028276    -0.98203313
O      -0.05991434    -4.93377746    -0.71531481
O      -0.66082136    -3.17475408    -1.97166570
H       0.56814393    -5.02705229    -1.44893942
H      -2.48426297    -4.46675868     0.19392556
H      -1.32951369    -3.45811738     1.05448301
H      -2.41949121    -2.71642931    -0.14840237
17 
# or31: geometry number 20. H8-C10 distance: 2.05 
C      -3.96280261    -2.94670955     2.38214048
C      -3.39058884    -1.89161585     3.30853408
N      -3.12187570    -2.32476334     4.57330661
O      -3.29667222    -0.72204930     2.99130689
H      -2.80627240    -1.65228868     5.25239786
H      -3.17030175    -3.29307256     4.83177649
H      -4.84646831    -2.53749656     1.89465671
H      -3.22649471    -3.16122835     1.60570579
H      -4.22407624    -3.87703421     2.88697102
C      -1.86600069    -3.58660953     0.13240784
C      -0.84979246    -3.82990761    -0.94609903
O      -0.09309712    -4.92340231    -0.67938071
O      -0.69400414    -3.16437893    -1.93573160
H       0.53496115    -5.01667714    -1.41300532
H      -2.51744575    -4.45638353     0.22985966
H      -1.36269647    -3.44774223     1.09041711
H      -2.45267399    -2.70605416    -0.11246827
17 
# or31: geometry number 21. H8-C10 distance: 2.0 
C      -3.96280261    -2.94670955     2.38214048
C      -3.39058884    -1.89161585     3.30853408
N      -3.12187570    -2.32476334     4.57330661
O      -3.29667222    -0.72204930     2.99130689
H      -2.80627240    -1.65228868     5.25239786
H      -3.17030175    -3.29307256     4.83177649
H      -4.84646831    -2.53749656     1.89465671
H      -3.22649471    -3.16122835     1.60570579
H      -4.22407624    -3.87703421     2.88697102
C      -1.89918347    -3.57623438     0.16834193
C      -0.88297524    -3.81953246    -0.91016494
O      -0.12627990    -4.91302716    -0.64344662
O      -0.72718692    -3.15400378    -1.89979751
H       0.50177837    -5.00630199    -1.37707123
H      -2.55062853    -4.44600838     0.26579375
H      -1.39587925    -3.43736708     1.12635120
H      -2.48585677    -2.69567901    -0.07653418
17 
# or31: geometry number 22. H8-C10 distance: 1.95 
C      -3.96280261    -2.94670955     2.38214048
C      -3.39058884    -1.89161585     3.30853408
N      -3.12187570    -2.32476334     4.57330661
O      -3.29667222    -0.72204930     2.99130689
H      -2.80627240    -1.65228868     5.25239786
H      -3.17030175    -3.29307256     4.83177649
H      -4.84646831    -2.53749656     1.89465671
H      -3.22649471    -3.16122835     1.60570579
H      -4.22407624    -3.87703421     2.88697102
C      -1.93236625    -3.56585923     0.20427603
C      -0.91615802    -3.80915731    -0.87423084
O      -0.15946268    -4.90265201    -0.60751252
O      -0.76036970    -3.14362863    -1.86386341
H       0.46859559    -4.99592684    -1.34113713
H      -2.58381131    -4.43563323     0.30172785
H      -1.42906203    -3.42699193     1.16228530
H      -2.51903955    -2.68530386    -0.04060008
17 
# or31: geometry number 23. H8-C10 distance: 1.9 
C      -3.96280261    -2.94670955     2.38214048
C      -3.39058884    -1.89161585     3.30853408
N      -3.12187570    -2.32476334     4.57330661
O      -3.29667222    -0.72204930     2.99130689
H      -2.80627240    -1.65228868     5.25239786
H      -3.17030175    -3.29307256     4.83177649
H      -4.84646831    -2.53749656     1.89465671
H      -3.22649471    -3.16122835     1.60570579
H      -4.22407624    -3.87703421     2.88697102
C      -1.96554903    -3.55548408     0.24021013
C      -0.94934080    -3.79878216    -0.83829674
O      -0.19264546    -4.89227686    -0.57157842
O      -0.79355248    -3.13325348    -1.82792931
H       0.43541281    -4.98555169    -1.30520303
H      -2.61699409    -4.42525808     0.33766195
H      -1.46224481    -3.41661678     1.19821940
H      -2.55222233    -2.67492871    -0.00466598
17 
# or31: geometry number 24. H8-C10 distance: 1.85 
C      -3.96280261    -2.94670955     2.38214048
C      -3.39058884    -1.89161585     3.30853408
N      -3.12187570    -2.32476334     4.57330661
O      -3.29667222    -0.72204930     2.99130689
H      -2.80627240    -1.65228868     5.25239786
H      -3.17030175    -3.29307256     4.83177649
H      -4.84646831    -2.53749656     1.89465671
H      -3.22649471    -3.16122835     1.60570579
H      -4.22407624    -3.87703421     2.88697102
C      -1.99873181    -3.54510893     0.27614422
C      -0.98252358    -3.78840701    -0.80236265
O      -0.22582824    -4.88190171    -0.53564433
O      -0.82673526    -3.12287833    -1.79199522
H       0.40223003    -4.97517654    -1.26926894
H      -2.65017687    -4.41488293     0.37359604
H      -1.49542759    -3.40624163     1.23415349
H      -2.58540511    -2.66455356     0.03126811
17 
# or31: geometry number 25. H8-C10 distance: 1.8 
C      -3.96280261    -2.94670955     2.38214048
C      -3.39058884    -1.89161585     3.30853408
N      -3.12187570    -2.32476334     4.57330661
O      -3.29667222    -0.72204930     2.99130689
H      -2.80627240    -1.65228868     5.25239786
H      -3.17030175    -3.29307256     4.83177649
H      -4.84646831    -2.53749656     1.89465671
H      -3.22649471    -3.16122835     1.60570579
H      -4.22407624    -3.87703421     2.88697102
C      -2.03191459    -3.53473378     0.31207832
C      -1.01570636    -3.77803186    -0.76642855
O      -0.25901102    -4.87152656    -0.49971023
O      -0.85991804    -3.11250318    -1.75606112
H       0.36904725    -4.96480139    -1.23333484
H      -2.68335965    -4.40450778     0.40953014
H      -1.52861037    -3.39586648     1.27008759
H      -2.61858789    -2.65417841     0.06720221
17 
# or31: geometry number 26. H8-C10 distance: 1.75 
C      -3.96280261    -2.94670955     2.38214048
C      -3.39058884    -1.89161585     3.30853408
N      -3.12187570    -2.32476334     4.57330661
O      -3.29667222    -0.72204930     2.99130689
H      -2.80627240    -1.65228868     5.25239786
H      -3.17030175    -3.29307256     4.83177649
H      -4.84646831    -2.53749656     1.89465671
H      -3.22649471    -3.16122835     1.60570579
H      -4.22407624    -3.87703421     2.88697102
C      -2.06509737    -3.52435863     0.34801241
C      -1.04888914    -3.76765671    -0.73049446
O      -0.29219380    -4.86115141    -0.46377614
O      -0.89310082    -3.10212803    -1.72012703
H       0.33586447    -4.95442624    -1.19740075
H      -2.71654243    -4.39413263     0.44546423
H      -1.56179315    -3.38549133     1.30602168
H      -2.65177067    -2.64380326     0.10313630
17 
# or31: geometry number 27. H8-C10 distance: 1.7 
C      -3.96280261    -2.94670955     2.38214048
C      -3.39058884    -1.89161585     3.30853408
N      -3.12187570    -2.32476334     4.57330661
O      -3.29667222    -0.72204930     2.99130689
H      -2.80627240    -1.65228868     5.25239786
H      -3.17030175    -3.29307256     4.83177649
H      -4.84646831    -2.53749656     1.89465671
H      -3.22649471    -3.16122835     1.60570579
H      -4.22407624    -3.87703421     2.88697102
C      -2.09828015    -3.51398348     0.38394651
C      -1.08207192    -3.75728156    -0.69456036
O      -0.32537658    -4.85077626    -0.42784204
O      -0.92628360    -3.09175288    -1.68419293
H       0.30268169    -4.94405109    -1.16146665
H      -2.74972521    -4.38375748     0.48139833
H      -1.59497593    -3.37511618     1.34195578
H      -2.68495345    -2.63342811     0.13907040
17 
# or31: geometry number 28. H8-C10 distance: 1.65 
C      -3.96280261    -2.94670955     2.38214048
C      -3.39058884    -1.89161585     3.30853408
N      -3.12187570    -2.32476334     4.57330661
O      -3.29667222    -0.72204930     2.99130689
H      -2.80627240    -1.65228868     5.25239786
H      -3.17030175    -3.29307256     4.83177649
H      -4.84646831    -2.53749656     1.89465671
H      -3.22649471    -3.16122835     1.60570579
H      -4.22407624    -3.87703421     2.88697102
C      -2.13146293    -3.50360833     0.41988061
C      -1.11525470    -3.74690641    -0.65862626
O      -0.35855936    -4.84040111    -0.39190794
O      -0.95946638    -3.08137773    -1.64825883
H       0.26949891    -4.93367594    -1.12553255
H      -2.78290799    -4.37338233     0.51733243
H      -1.62815871    -3.36474103     1.37788988
H      -2.71813623    -2.62305296     0.17500450
17 
# or31: geometry number 29. H8-C10 distance: 1.6 
C      -3.96280261    -2.94670955     2.38214048
C      -3.39058884    -1.89161585     3.30853408
N      -3.12187570    -2.32476334     4.57330661
O      -3.29667222    -0.72204930     2.99130689
H      -2.80627240    -1.65228868     5.25239786
H      -3.17030175    -3.29307256     4.83177649
H      -4.84646831    -2.53749656     1.89465671
H      -3.22649471    -3.16122835     1.60570579
H      -4.22407624    -3.87703421     2.88697102
C      -2.16464572    -3.49323317     0.45581470
C      -1.14843749    -3.73653125    -0.62269217
O      -0.39174215    -4.83002595    -0.35597385
O      -0.99264917    -3.07100257    -1.61232474
H       0.23631612    -4.92330078    -1.08959846
H      -2.81609078    -4.36300717     0.55326652
H      -1.66134150    -3.35436587     1.41382397
H      -2.75131902    -2.61267780     0.21093859
