17 
# or36: geometry number 1. H8-H15 distance: 10 
C      -2.81778165    -2.85677831     1.73969916
C      -2.13241119    -1.80044671     2.58426253
N      -1.80371522    -2.20025930     3.84584165
O      -1.99957640    -0.65021115     2.21459723
H      -1.40998898    -1.52106182     4.47565350
H      -1.88473901    -3.15429974     4.14586913
H      -3.70939343    -2.41887705     1.29334538
H      -2.14613302    -3.13932004     0.92724808
H      -3.09275537    -3.75230656     2.29740909
C       4.97855688    -5.50251046    -7.23458407
C       4.30082464    -6.51304295    -8.11467114
O       3.94476220    -7.62074437    -7.41776779
O       4.08234496    -6.39429864    -9.29141982
H       3.51651557    -8.22306183    -8.04640197
H       4.31110451    -5.21340455    -6.42137472
H       5.86933561    -5.94269576    -6.78388329
H       5.24951016    -4.63095105    -7.82322330
17 
# or36: geometry number 2. H8-H15 distance: 9 
C      -2.81778165    -2.85677831     1.73969916
C      -2.13241119    -1.80044671     2.58426253
N      -1.80371522    -2.20025930     3.84584165
O      -1.99957640    -0.65021115     2.21459723
H      -1.40998898    -1.52106182     4.47565350
H      -1.88473901    -3.15429974     4.14586913
H      -3.70939343    -2.41887705     1.29334538
H      -2.14613302    -3.13932004     0.92724808
H      -3.09275537    -3.75230656     2.29740909
C       4.33283312    -5.29510201    -6.49972179
C       3.65510088    -6.30563450    -7.37980886
O       3.29903844    -7.41333592    -6.68290551
O       3.43662120    -6.18689019    -8.55655754
H       2.87079181    -8.01565338    -7.31153969
H       3.66538075    -5.00599610    -5.68651244
H       5.22361185    -5.73528731    -6.04902101
H       4.60378640    -4.42354260    -7.08836102
17 
# or36: geometry number 3. H8-H15 distance: 8 
C      -2.81778165    -2.85677831     1.73969916
C      -2.13241119    -1.80044671     2.58426253
N      -1.80371522    -2.20025930     3.84584165
O      -1.99957640    -0.65021115     2.21459723
H      -1.40998898    -1.52106182     4.47565350
H      -1.88473901    -3.15429974     4.14586913
H      -3.70939343    -2.41887705     1.29334538
H      -2.14613302    -3.13932004     0.92724808
H      -3.09275537    -3.75230656     2.29740909
C       3.68710937    -5.08769356    -5.76485951
C       3.00937713    -6.09822605    -6.64494658
O       2.65331469    -7.20592747    -5.94804323
O       2.79089745    -5.97948174    -7.82169526
H       2.22506806    -7.80824493    -6.57667741
H       3.01965700    -4.79858765    -4.95165016
H       4.57788810    -5.52787886    -5.31415873
H       3.95806265    -4.21613415    -6.35349874
17 
# or36: geometry number 4. H8-H15 distance: 7 
C      -2.81778165    -2.85677831     1.73969916
C      -2.13241119    -1.80044671     2.58426253
N      -1.80371522    -2.20025930     3.84584165
O      -1.99957640    -0.65021115     2.21459723
H      -1.40998898    -1.52106182     4.47565350
H      -1.88473901    -3.15429974     4.14586913
H      -3.70939343    -2.41887705     1.29334538
H      -2.14613302    -3.13932004     0.92724808
H      -3.09275537    -3.75230656     2.29740909
C       3.04138562    -4.88028511    -5.02999723
C       2.36365338    -5.89081760    -5.91008430
O       2.00759094    -6.99851902    -5.21318095
O       2.14517370    -5.77207329    -7.08683298
H       1.57934431    -7.60083648    -5.84181513
H       2.37393325    -4.59117920    -4.21678788
H       3.93216435    -5.32047041    -4.57929645
H       3.31233890    -4.00872570    -5.61863646
17 
# or36: geometry number 5. H8-H15 distance: 6 
C      -2.81778165    -2.85677831     1.73969916
C      -2.13241119    -1.80044671     2.58426253
N      -1.80371522    -2.20025930     3.84584165
O      -1.99957640    -0.65021115     2.21459723
H      -1.40998898    -1.52106182     4.47565350
H      -1.88473901    -3.15429974     4.14586913
H      -3.70939343    -2.41887705     1.29334538
H      -2.14613302    -3.13932004     0.92724808
H      -3.09275537    -3.75230656     2.29740909
C       2.39566187    -4.67287666    -4.29513495
C       1.71792963    -5.68340915    -5.17522202
O       1.36186719    -6.79111057    -4.47831867
O       1.49944995    -5.56466484    -6.35197070
H       0.93362056    -7.39342803    -5.10695285
H       1.72820950    -4.38377075    -3.48192560
H       3.28644060    -5.11306196    -3.84443417
H       2.66661515    -3.80131725    -4.88377418
17 
# or36: geometry number 6. H8-H15 distance: 5 
C      -2.81778165    -2.85677831     1.73969916
C      -2.13241119    -1.80044671     2.58426253
N      -1.80371522    -2.20025930     3.84584165
O      -1.99957640    -0.65021115     2.21459723
H      -1.40998898    -1.52106182     4.47565350
H      -1.88473901    -3.15429974     4.14586913
H      -3.70939343    -2.41887705     1.29334538
H      -2.14613302    -3.13932004     0.92724808
H      -3.09275537    -3.75230656     2.29740909
C       1.74993811    -4.46546821    -3.56027267
C       1.07220587    -5.47600070    -4.44035974
O       0.71614343    -6.58370212    -3.74345639
O       0.85372619    -5.35725639    -5.61710842
H       0.28789680    -7.18601958    -4.37209057
H       1.08248574    -4.17636230    -2.74706332
H       2.64071684    -4.90565351    -3.10957189
H       2.02089139    -3.59390880    -4.14891190
17 
# or36: geometry number 7. H8-H15 distance: 4.5 
C      -2.81778165    -2.85677831     1.73969916
C      -2.13241119    -1.80044671     2.58426253
N      -1.80371522    -2.20025930     3.84584165
O      -1.99957640    -0.65021115     2.21459723
H      -1.40998898    -1.52106182     4.47565350
H      -1.88473901    -3.15429974     4.14586913
H      -3.70939343    -2.41887705     1.29334538
H      -2.14613302    -3.13932004     0.92724808
H      -3.09275537    -3.75230656     2.29740909
C       1.42707624    -4.36176398    -3.19284153
C       0.74934400    -5.37229647    -4.07292860
O       0.39328156    -6.47999789    -3.37602525
O       0.53086432    -5.25355216    -5.24967728
H      -0.03496507    -7.08231535    -4.00465943
H       0.75962387    -4.07265807    -2.37963218
H       2.31785497    -4.80194928    -2.74214075
H       1.69802952    -3.49020457    -3.78148076
17 
# or36: geometry number 8. H8-H15 distance: 4 
C      -2.81778165    -2.85677831     1.73969916
C      -2.13241119    -1.80044671     2.58426253
N      -1.80371522    -2.20025930     3.84584165
O      -1.99957640    -0.65021115     2.21459723
H      -1.40998898    -1.52106182     4.47565350
H      -1.88473901    -3.15429974     4.14586913
H      -3.70939343    -2.41887705     1.29334538
H      -2.14613302    -3.13932004     0.92724808
H      -3.09275537    -3.75230656     2.29740909
C       1.10421436    -4.25805975    -2.82541039
C       0.42648212    -5.26859224    -3.70549746
O       0.07041968    -6.37629366    -3.00859411
O       0.20800244    -5.14984793    -4.88224614
H      -0.35782695    -6.97861112    -3.63722829
H       0.43676199    -3.96895384    -2.01220104
H       1.99499309    -4.69824505    -2.37470961
H       1.37516764    -3.38650034    -3.41404962
17 
# or36: geometry number 9. H8-H15 distance: 3.7 
C      -2.81778165    -2.85677831     1.73969916
C      -2.13241119    -1.80044671     2.58426253
N      -1.80371522    -2.20025930     3.84584165
O      -1.99957640    -0.65021115     2.21459723
H      -1.40998898    -1.52106182     4.47565350
H      -1.88473901    -3.15429974     4.14586913
H      -3.70939343    -2.41887705     1.29334538
H      -2.14613302    -3.13932004     0.92724808
H      -3.09275537    -3.75230656     2.29740909
C       0.91049723    -4.19583722    -2.60495170
C       0.23276499    -5.20636971    -3.48503877
O      -0.12329745    -6.31407113    -2.78813542
O       0.01428531    -5.08762540    -4.66178745
H      -0.55154408    -6.91638859    -3.41676960
H       0.24304486    -3.90673131    -1.79174235
H       1.80127596    -4.63602252    -2.15425092
H       1.18145051    -3.32427781    -3.19359093
17 
# or36: geometry number 10. H8-H15 distance: 3.4 
C      -2.81778165    -2.85677831     1.73969916
C      -2.13241119    -1.80044671     2.58426253
N      -1.80371522    -2.20025930     3.84584165
O      -1.99957640    -0.65021115     2.21459723
H      -1.40998898    -1.52106182     4.47565350
H      -1.88473901    -3.15429974     4.14586913
H      -3.70939343    -2.41887705     1.29334538
H      -2.14613302    -3.13932004     0.92724808
H      -3.09275537    -3.75230656     2.29740909
C       0.71678011    -4.13361468    -2.38449302
C       0.03904787    -5.14414717    -3.26458009
O      -0.31701457    -6.25184859    -2.56767674
O      -0.17943181    -5.02540286    -4.44132877
H      -0.74526120    -6.85416605    -3.19631092
H       0.04932774    -3.84450877    -1.57128367
H       1.60755884    -4.57379998    -1.93379224
H       0.98773339    -3.26205527    -2.97313225
17 
# or36: geometry number 11. H8-H15 distance: 3.1 
C      -2.81778165    -2.85677831     1.73969916
C      -2.13241119    -1.80044671     2.58426253
N      -1.80371522    -2.20025930     3.84584165
O      -1.99957640    -0.65021115     2.21459723
H      -1.40998898    -1.52106182     4.47565350
H      -1.88473901    -3.15429974     4.14586913
H      -3.70939343    -2.41887705     1.29334538
H      -2.14613302    -3.13932004     0.92724808
H      -3.09275537    -3.75230656     2.29740909
C       0.52306298    -4.07139215    -2.16403434
C      -0.15466926    -5.08192464    -3.04412141
O      -0.51073170    -6.18962606    -2.34721806
O      -0.37314894    -4.96318033    -4.22087009
H      -0.93897833    -6.79194352    -2.97585224
H      -0.14438939    -3.78228624    -1.35082499
H       1.41384171    -4.51157745    -1.71333356
H       0.79401626    -3.19983274    -2.75267357
17 
# or36: geometry number 12. H8-H15 distance: 2.9 
C      -2.81778165    -2.85677831     1.73969916
C      -2.13241119    -1.80044671     2.58426253
N      -1.80371522    -2.20025930     3.84584165
O      -1.99957640    -0.65021115     2.21459723
H      -1.40998898    -1.52106182     4.47565350
H      -1.88473901    -3.15429974     4.14586913
H      -3.70939343    -2.41887705     1.29334538
H      -2.14613302    -3.13932004     0.92724808
H      -3.09275537    -3.75230656     2.29740909
C       0.39391823    -4.02991046    -2.01706188
C      -0.28381401    -5.04044295    -2.89714895
O      -0.63987645    -6.14814437    -2.20024560
O      -0.50229369    -4.92169864    -4.07389763
H      -1.06812308    -6.75046183    -2.82887978
H      -0.27353414    -3.74080455    -1.20385253
H       1.28469696    -4.47009576    -1.56636110
H       0.66487151    -3.15835105    -2.60570111
17 
# or36: geometry number 13. H8-H15 distance: 2.7 
C      -2.81778165    -2.85677831     1.73969916
C      -2.13241119    -1.80044671     2.58426253
N      -1.80371522    -2.20025930     3.84584165
O      -1.99957640    -0.65021115     2.21459723
H      -1.40998898    -1.52106182     4.47565350
H      -1.88473901    -3.15429974     4.14586913
H      -3.70939343    -2.41887705     1.29334538
H      -2.14613302    -3.13932004     0.92724808
H      -3.09275537    -3.75230656     2.29740909
C       0.26477348    -3.98842877    -1.87008942
C      -0.41295876    -4.99896126    -2.75017649
O      -0.76902120    -6.10666268    -2.05327314
O      -0.63143844    -4.88021695    -3.92692517
H      -1.19726783    -6.70898014    -2.68190732
H      -0.40267889    -3.69932286    -1.05688007
H       1.15555221    -4.42861407    -1.41938864
H       0.53572676    -3.11686936    -2.45872865
17 
# or36: geometry number 14. H8-H15 distance: 2.5 
C      -2.81778165    -2.85677831     1.73969916
C      -2.13241119    -1.80044671     2.58426253
N      -1.80371522    -2.20025930     3.84584165
O      -1.99957640    -0.65021115     2.21459723
H      -1.40998898    -1.52106182     4.47565350
H      -1.88473901    -3.15429974     4.14586913
H      -3.70939343    -2.41887705     1.29334538
H      -2.14613302    -3.13932004     0.92724808
H      -3.09275537    -3.75230656     2.29740909
C       0.13562873    -3.94694708    -1.72311697
C      -0.54210351    -4.95747957    -2.60320404
O      -0.89816595    -6.06518099    -1.90630069
O      -0.76058319    -4.83873526    -3.77995272
H      -1.32641258    -6.66749845    -2.53493487
H      -0.53182364    -3.65784117    -0.90990762
H       1.02640746    -4.38713238    -1.27241619
H       0.40658201    -3.07538767    -2.31175620
17 
# or36: geometry number 15. H8-H15 distance: 2.4 
C      -2.81778165    -2.85677831     1.73969916
C      -2.13241119    -1.80044671     2.58426253
N      -1.80371522    -2.20025930     3.84584165
O      -1.99957640    -0.65021115     2.21459723
H      -1.40998898    -1.52106182     4.47565350
H      -1.88473901    -3.15429974     4.14586913
H      -3.70939343    -2.41887705     1.29334538
H      -2.14613302    -3.13932004     0.92724808
H      -3.09275537    -3.75230656     2.29740909
C       0.07105636    -3.92620623    -1.64963074
C      -0.60667588    -4.93673872    -2.52971781
O      -0.96273832    -6.04444014    -1.83281446
O      -0.82515556    -4.81799441    -3.70646649
H      -1.39098495    -6.64675760    -2.46144864
H      -0.59639601    -3.63710032    -0.83642139
H       0.96183509    -4.36639153    -1.19892996
H       0.34200964    -3.05464682    -2.23826997
17 
# or36: geometry number 16. H8-H15 distance: 2.3 
C      -2.81778165    -2.85677831     1.73969916
C      -2.13241119    -1.80044671     2.58426253
N      -1.80371522    -2.20025930     3.84584165
O      -1.99957640    -0.65021115     2.21459723
H      -1.40998898    -1.52106182     4.47565350
H      -1.88473901    -3.15429974     4.14586913
H      -3.70939343    -2.41887705     1.29334538
H      -2.14613302    -3.13932004     0.92724808
H      -3.09275537    -3.75230656     2.29740909
C       0.00648398    -3.90546539    -1.57614451
C      -0.67124826    -4.91599788    -2.45623158
O      -1.02731070    -6.02369930    -1.75932823
O      -0.88972794    -4.79725357    -3.63298026
H      -1.45555733    -6.62601676    -2.38796241
H      -0.66096839    -3.61635948    -0.76293516
H       0.89726271    -4.34565069    -1.12544373
H       0.27743726    -3.03390598    -2.16478374
17 
# or36: geometry number 17. H8-H15 distance: 2.2 
C      -2.81778165    -2.85677831     1.73969916
C      -2.13241119    -1.80044671     2.58426253
N      -1.80371522    -2.20025930     3.84584165
O      -1.99957640    -0.65021115     2.21459723
H      -1.40998898    -1.52106182     4.47565350
H      -1.88473901    -3.15429974     4.14586913
H      -3.70939343    -2.41887705     1.29334538
H      -2.14613302    -3.13932004     0.92724808
H      -3.09275537    -3.75230656     2.29740909
C      -0.05808839    -3.88472454    -1.50265828
C      -0.73582063    -4.89525703    -2.38274535
O      -1.09188307    -6.00295845    -1.68584200
O      -0.95430031    -4.77651272    -3.55949403
H      -1.52012970    -6.60527591    -2.31447618
H      -0.72554076    -3.59561863    -0.68944893
H       0.83269034    -4.32490984    -1.05195750
H       0.21286489    -3.01316513    -2.09129751
17 
# or36: geometry number 18. H8-H15 distance: 2.1 
C      -2.81778165    -2.85677831     1.73969916
C      -2.13241119    -1.80044671     2.58426253
N      -1.80371522    -2.20025930     3.84584165
O      -1.99957640    -0.65021115     2.21459723
H      -1.40998898    -1.52106182     4.47565350
H      -1.88473901    -3.15429974     4.14586913
H      -3.70939343    -2.41887705     1.29334538
H      -2.14613302    -3.13932004     0.92724808
H      -3.09275537    -3.75230656     2.29740909
C      -0.12266077    -3.86398370    -1.42917206
C      -0.80039301    -4.87451619    -2.30925913
O      -1.15645545    -5.98221761    -1.61235578
O      -1.01887269    -4.75577188    -3.48600781
H      -1.58470208    -6.58453507    -2.24098996
H      -0.79011314    -3.57487779    -0.61596271
H       0.76811796    -4.30416900    -0.97847128
H       0.14829251    -2.99242429    -2.01781129
17 
# or36: geometry number 19. H8-H15 distance: 2.0 
C      -2.81778165    -2.85677831     1.73969916
C      -2.13241119    -1.80044671     2.58426253
N      -1.80371522    -2.20025930     3.84584165
O      -1.99957640    -0.65021115     2.21459723
H      -1.40998898    -1.52106182     4.47565350
H      -1.88473901    -3.15429974     4.14586913
H      -3.70939343    -2.41887705     1.29334538
H      -2.14613302    -3.13932004     0.92724808
H      -3.09275537    -3.75230656     2.29740909
C      -0.18723314    -3.84324285    -1.35568583
C      -0.86496538    -4.85377534    -2.23577290
O      -1.22102782    -5.96147676    -1.53886955
O      -1.08344506    -4.73503103    -3.41252158
H      -1.64927445    -6.56379422    -2.16750373
H      -0.85468551    -3.55413694    -0.54247648
H       0.70354559    -4.28342815    -0.90498505
H       0.08372014    -2.97168344    -1.94432506
17 
# or36: geometry number 20. H8-H15 distance: 1.9 
C      -2.81778165    -2.85677831     1.73969916
C      -2.13241119    -1.80044671     2.58426253
N      -1.80371522    -2.20025930     3.84584165
O      -1.99957640    -0.65021115     2.21459723
H      -1.40998898    -1.52106182     4.47565350
H      -1.88473901    -3.15429974     4.14586913
H      -3.70939343    -2.41887705     1.29334538
H      -2.14613302    -3.13932004     0.92724808
H      -3.09275537    -3.75230656     2.29740909
C      -0.25180552    -3.82250201    -1.28219960
C      -0.92953776    -4.83303450    -2.16228667
O      -1.28560020    -5.94073592    -1.46538332
O      -1.14801744    -4.71429019    -3.33903535
H      -1.71384683    -6.54305338    -2.09401750
H      -0.91925789    -3.53339610    -0.46899025
H       0.63897321    -4.26268731    -0.83149882
H       0.01914776    -2.95094260    -1.87083883
17 
# or36: geometry number 21. H8-H15 distance: 1.8 
C      -2.81778165    -2.85677831     1.73969916
C      -2.13241119    -1.80044671     2.58426253
N      -1.80371522    -2.20025930     3.84584165
O      -1.99957640    -0.65021115     2.21459723
H      -1.40998898    -1.52106182     4.47565350
H      -1.88473901    -3.15429974     4.14586913
H      -3.70939343    -2.41887705     1.29334538
H      -2.14613302    -3.13932004     0.92724808
H      -3.09275537    -3.75230656     2.29740909
C      -0.31637790    -3.80176116    -1.20871337
C      -0.99411014    -4.81229365    -2.08880044
O      -1.35017258    -5.91999507    -1.39189709
O      -1.21258982    -4.69354934    -3.26554912
H      -1.77841921    -6.52231253    -2.02053127
H      -0.98383027    -3.51265525    -0.39550402
H       0.57440083    -4.24194646    -0.75801259
H      -0.04542462    -2.93020175    -1.79735260
17 
# or36: geometry number 22. H8-H15 distance: 1.7 
C      -2.81778165    -2.85677831     1.73969916
C      -2.13241119    -1.80044671     2.58426253
N      -1.80371522    -2.20025930     3.84584165
O      -1.99957640    -0.65021115     2.21459723
H      -1.40998898    -1.52106182     4.47565350
H      -1.88473901    -3.15429974     4.14586913
H      -3.70939343    -2.41887705     1.29334538
H      -2.14613302    -3.13932004     0.92724808
H      -3.09275537    -3.75230656     2.29740909
C      -0.38095027    -3.78102032    -1.13522715
C      -1.05868251    -4.79155281    -2.01531422
O      -1.41474495    -5.89925423    -1.31841087
O      -1.27716219    -4.67280850    -3.19206290
H      -1.84299158    -6.50157169    -1.94704505
H      -1.04840264    -3.49191441    -0.32201780
H       0.50982846    -4.22120562    -0.68452637
H      -0.10999699    -2.90946091    -1.72386638
17 
# or36: geometry number 23. H8-H15 distance: 1.6 
C      -2.81778165    -2.85677831     1.73969916
C      -2.13241119    -1.80044671     2.58426253
N      -1.80371522    -2.20025930     3.84584165
O      -1.99957640    -0.65021115     2.21459723
H      -1.40998898    -1.52106182     4.47565350
H      -1.88473901    -3.15429974     4.14586913
H      -3.70939343    -2.41887705     1.29334538
H      -2.14613302    -3.13932004     0.92724808
H      -3.09275537    -3.75230656     2.29740909
C      -0.44552265    -3.76027947    -1.06174092
C      -1.12325489    -4.77081196    -1.94182799
O      -1.47931733    -5.87851338    -1.24492464
O      -1.34173457    -4.65206765    -3.11857667
H      -1.90756396    -6.48083084    -1.87355882
H      -1.11297502    -3.47117356    -0.24853157
H       0.44525608    -4.20046477    -0.61104014
H      -0.17456937    -2.88872006    -1.65038015
17 
# or36: geometry number 24. H8-H15 distance: 1.5 
C      -2.81778165    -2.85677831     1.73969916
C      -2.13241119    -1.80044671     2.58426253
N      -1.80371522    -2.20025930     3.84584165
O      -1.99957640    -0.65021115     2.21459723
H      -1.40998898    -1.52106182     4.47565350
H      -1.88473901    -3.15429974     4.14586913
H      -3.70939343    -2.41887705     1.29334538
H      -2.14613302    -3.13932004     0.92724808
H      -3.09275537    -3.75230656     2.29740909
C      -0.51009502    -3.73953863    -0.98825469
C      -1.18782726    -4.75007112    -1.86834176
O      -1.54388970    -5.85777254    -1.17143841
O      -1.40630694    -4.63132681    -3.04509044
H      -1.97213633    -6.46009000    -1.80007259
H      -1.17754739    -3.45043272    -0.17504534
H       0.38068371    -4.17972393    -0.53755391
H      -0.23914174    -2.86797922    -1.57689392
17 
# or36: geometry number 25. H8-H15 distance: 1.4 
C      -2.81778165    -2.85677831     1.73969916
C      -2.13241119    -1.80044671     2.58426253
N      -1.80371522    -2.20025930     3.84584165
O      -1.99957640    -0.65021115     2.21459723
H      -1.40998898    -1.52106182     4.47565350
H      -1.88473901    -3.15429974     4.14586913
H      -3.70939343    -2.41887705     1.29334538
H      -2.14613302    -3.13932004     0.92724808
H      -3.09275537    -3.75230656     2.29740909
C      -0.57466740    -3.71879778    -0.91476846
C      -1.25239964    -4.72933027    -1.79485553
O      -1.60846208    -5.83703169    -1.09795218
O      -1.47087932    -4.61058596    -2.97160421
H      -2.03670871    -6.43934915    -1.72658636
H      -1.24211977    -3.42969187    -0.10155911
H       0.31611133    -4.15898308    -0.46406768
H      -0.30371412    -2.84723837    -1.50340769
17 
# or36: geometry number 26. H8-H15 distance: 1.35 
C      -2.81778165    -2.85677831     1.73969916
C      -2.13241119    -1.80044671     2.58426253
N      -1.80371522    -2.20025930     3.84584165
O      -1.99957640    -0.65021115     2.21459723
H      -1.40998898    -1.52106182     4.47565350
H      -1.88473901    -3.15429974     4.14586913
H      -3.70939343    -2.41887705     1.29334538
H      -2.14613302    -3.13932004     0.92724808
H      -3.09275537    -3.75230656     2.29740909
C      -0.60695358    -3.70842736    -0.87802535
C      -1.28468582    -4.71895985    -1.75811242
O      -1.64074826    -5.82666127    -1.06120907
O      -1.50316550    -4.60021554    -2.93486110
H      -2.06899489    -6.42897873    -1.68984325
H      -1.27440595    -3.41932145    -0.06481600
H       0.28382515    -4.14861266    -0.42732457
H      -0.33600030    -2.83686795    -1.46666458
17 
# or36: geometry number 27. H8-H15 distance: 1.3 
C      -2.81778165    -2.85677831     1.73969916
C      -2.13241119    -1.80044671     2.58426253
N      -1.80371522    -2.20025930     3.84584165
O      -1.99957640    -0.65021115     2.21459723
H      -1.40998898    -1.52106182     4.47565350
H      -1.88473901    -3.15429974     4.14586913
H      -3.70939343    -2.41887705     1.29334538
H      -2.14613302    -3.13932004     0.92724808
H      -3.09275537    -3.75230656     2.29740909
C      -0.63923977    -3.69805694    -0.84128223
C      -1.31697201    -4.70858943    -1.72136930
O      -1.67303445    -5.81629085    -1.02446595
O      -1.53545169    -4.58984512    -2.89811798
H      -2.10128108    -6.41860831    -1.65310013
H      -1.30669214    -3.40895103    -0.02807288
H       0.25153896    -4.13824224    -0.39058145
H      -0.36828649    -2.82649753    -1.42992146
17 
# or36: geometry number 28. H8-H15 distance: 1.25 
C      -2.81778165    -2.85677831     1.73969916
C      -2.13241119    -1.80044671     2.58426253
N      -1.80371522    -2.20025930     3.84584165
O      -1.99957640    -0.65021115     2.21459723
H      -1.40998898    -1.52106182     4.47565350
H      -1.88473901    -3.15429974     4.14586913
H      -3.70939343    -2.41887705     1.29334538
H      -2.14613302    -3.13932004     0.92724808
H      -3.09275537    -3.75230656     2.29740909
C      -0.67152596    -3.68768651    -0.80453912
C      -1.34925820    -4.69821900    -1.68462619
O      -1.70532064    -5.80592042    -0.98772284
O      -1.56773788    -4.57947469    -2.86137487
H      -2.13356727    -6.40823788    -1.61635702
H      -1.33897833    -3.39858060     0.00867023
H       0.21925277    -4.12787181    -0.35383834
H      -0.40057268    -2.81612710    -1.39317835
17 
# or36: geometry number 29. H8-H15 distance: 1.2 
C      -2.81778165    -2.85677831     1.73969916
C      -2.13241119    -1.80044671     2.58426253
N      -1.80371522    -2.20025930     3.84584165
O      -1.99957640    -0.65021115     2.21459723
H      -1.40998898    -1.52106182     4.47565350
H      -1.88473901    -3.15429974     4.14586913
H      -3.70939343    -2.41887705     1.29334538
H      -2.14613302    -3.13932004     0.92724808
H      -3.09275537    -3.75230656     2.29740909
C      -0.70381215    -3.67731609    -0.76779601
C      -1.38154439    -4.68784858    -1.64788308
O      -1.73760683    -5.79555000    -0.95097973
O      -1.60002407    -4.56910427    -2.82463176
H      -2.16585346    -6.39786746    -1.57961391
H      -1.37126452    -3.38821018     0.04541334
H       0.18696658    -4.11750139    -0.31709523
H      -0.43285887    -2.80575668    -1.35643524
