17 
# or37: geometry number 1. O4-H14 distance: 10 
C     -10.49123300     4.49007200     4.89121700
C      -9.52245400     3.95562800     3.86439600
N      -9.58859700     2.65065200     3.56889300
O      -8.71419500     4.71835700     3.32437700
H      -8.95234600     2.26946600     2.86303200
H     -10.25773100     2.05346400     4.01948300
H      -9.93327900     5.04579100     5.64414800
H     -11.16558900     5.19178200     4.39800100
H     -11.07892100     3.71032600     5.37476400
C      -0.94888474     0.38833018    -6.36620838
C      -1.87849474     0.64761818    -5.21167738
O      -1.90691374     1.91825818    -4.85633738
O      -2.53505774    -0.23224082    -4.67802338
H      -2.54394774     2.08445518    -4.09118838
H      -1.32079774     0.90944518    -7.25048338
H       0.04065826     0.78990718    -6.14590138
H      -0.89031474    -0.67802482    -6.56526738
17 
# or37: geometry number 2. O4-H14 distance: 9 
C     -10.49123300     4.49007200     4.89121700
C      -9.52245400     3.95562800     3.86439600
N      -9.58859700     2.65065200     3.56889300
O      -8.71419500     4.71835700     3.32437700
H      -8.95234600     2.26946600     2.86303200
H     -10.25773100     2.05346400     4.01948300
H      -9.93327900     5.04579100     5.64414800
H     -11.16558900     5.19178200     4.39800100
H     -11.07892100     3.71032600     5.37476400
C      -1.56590946     0.65172036    -5.62465184
C      -2.49551946     0.91100836    -4.47012084
O      -2.52393846     2.18164836    -4.11478084
O      -3.15208246     0.03114936    -3.93646684
H      -3.16097246     2.34784536    -3.34963184
H      -1.93782246     1.17283536    -6.50892684
H      -0.57636646     1.05329736    -5.40434484
H      -1.50733946    -0.41463464    -5.82371084
17 
# or37: geometry number 3. O4-H14 distance: 8 
C     -10.49123300     4.49007200     4.89121700
C      -9.52245400     3.95562800     3.86439600
N      -9.58859700     2.65065200     3.56889300
O      -8.71419500     4.71835700     3.32437700
H      -8.95234600     2.26946600     2.86303200
H     -10.25773100     2.05346400     4.01948300
H      -9.93327900     5.04579100     5.64414800
H     -11.16558900     5.19178200     4.39800100
H     -11.07892100     3.71032600     5.37476400
C      -2.18293419     0.91511054    -4.88309530
C      -3.11254419     1.17439854    -3.72856430
O      -3.14096319     2.44503854    -3.37322430
O      -3.76910719     0.29453954    -3.19491030
H      -3.77799719     2.61123554    -2.60807530
H      -2.55484719     1.43622554    -5.76737030
H      -1.19339119     1.31668754    -4.66278830
H      -2.12436419    -0.15124446    -5.08215430
17 
# or37: geometry number 4. O4-H14 distance: 7 
C     -10.49123300     4.49007200     4.89121700
C      -9.52245400     3.95562800     3.86439600
N      -9.58859700     2.65065200     3.56889300
O      -8.71419500     4.71835700     3.32437700
H      -8.95234600     2.26946600     2.86303200
H     -10.25773100     2.05346400     4.01948300
H      -9.93327900     5.04579100     5.64414800
H     -11.16558900     5.19178200     4.39800100
H     -11.07892100     3.71032600     5.37476400
C      -2.79995892     1.17850072    -4.14153877
C      -3.72956892     1.43778872    -2.98700777
O      -3.75798792     2.70842872    -2.63166777
O      -4.38613192     0.55792972    -2.45335377
H      -4.39502192     2.87462572    -1.86651877
H      -3.17187192     1.69961572    -5.02581377
H      -1.81041592     1.58007772    -3.92123177
H      -2.74138892     0.11214572    -4.34059777
17 
# or37: geometry number 5. O4-H14 distance: 6 
C     -10.49123300     4.49007200     4.89121700
C      -9.52245400     3.95562800     3.86439600
N      -9.58859700     2.65065200     3.56889300
O      -8.71419500     4.71835700     3.32437700
H      -8.95234600     2.26946600     2.86303200
H     -10.25773100     2.05346400     4.01948300
H      -9.93327900     5.04579100     5.64414800
H     -11.16558900     5.19178200     4.39800100
H     -11.07892100     3.71032600     5.37476400
C      -3.41698364     1.44189091    -3.39998223
C      -4.34659364     1.70117891    -2.24545123
O      -4.37501264     2.97181891    -1.89011123
O      -5.00315664     0.82131991    -1.71179723
H      -5.01204664     3.13801591    -1.12496223
H      -3.78889664     1.96300591    -4.28425723
H      -2.42744064     1.84346791    -3.17967523
H      -3.35841364     0.37553591    -3.59904123
17 
# or37: geometry number 6. O4-H14 distance: 5 
C     -10.49123300     4.49007200     4.89121700
C      -9.52245400     3.95562800     3.86439600
N      -9.58859700     2.65065200     3.56889300
O      -8.71419500     4.71835700     3.32437700
H      -8.95234600     2.26946600     2.86303200
H     -10.25773100     2.05346400     4.01948300
H      -9.93327900     5.04579100     5.64414800
H     -11.16558900     5.19178200     4.39800100
H     -11.07892100     3.71032600     5.37476400
C      -4.03400837     1.70528109    -2.65842569
C      -4.96361837     1.96456909    -1.50389469
O      -4.99203737     3.23520909    -1.14855469
O      -5.62018137     1.08471009    -0.97024069
H      -5.62907137     3.40140609    -0.38340569
H      -4.40592137     2.22639609    -3.54270069
H      -3.04446537     2.10685809    -2.43811869
H      -3.97543837     0.63892609    -2.85748469
17 
# or37: geometry number 7. O4-H14 distance: 4.5 
C     -10.49123300     4.49007200     4.89121700
C      -9.52245400     3.95562800     3.86439600
N      -9.58859700     2.65065200     3.56889300
O      -8.71419500     4.71835700     3.32437700
H      -8.95234600     2.26946600     2.86303200
H     -10.25773100     2.05346400     4.01948300
H      -9.93327900     5.04579100     5.64414800
H     -11.16558900     5.19178200     4.39800100
H     -11.07892100     3.71032600     5.37476400
C      -4.34252073     1.83697618    -2.28764742
C      -5.27213073     2.09626418    -1.13311642
O      -5.30054973     3.36690418    -0.77777642
O      -5.92869373     1.21640518    -0.59946242
H      -5.93758373     3.53310118    -0.01262742
H      -4.71443373     2.35809118    -3.17192242
H      -3.35297773     2.23855318    -2.06734042
H      -4.28395073     0.77062118    -2.48670642
17 
# or37: geometry number 8. O4-H14 distance: 4 
C     -10.49123300     4.49007200     4.89121700
C      -9.52245400     3.95562800     3.86439600
N      -9.58859700     2.65065200     3.56889300
O      -8.71419500     4.71835700     3.32437700
H      -8.95234600     2.26946600     2.86303200
H     -10.25773100     2.05346400     4.01948300
H      -9.93327900     5.04579100     5.64414800
H     -11.16558900     5.19178200     4.39800100
H     -11.07892100     3.71032600     5.37476400
C      -4.65103309     1.96867127    -1.91686915
C      -5.58064309     2.22795927    -0.76233815
O      -5.60906209     3.49859927    -0.40699815
O      -6.23720609     1.34810027    -0.22868415
H      -6.24609609     3.66479627     0.35815085
H      -5.02294609     2.48978627    -2.80114415
H      -3.66149009     2.37024827    -1.69656215
H      -4.59246309     0.90231627    -2.11592815
17 
# or37: geometry number 9. O4-H14 distance: 3.7 
C     -10.49123300     4.49007200     4.89121700
C      -9.52245400     3.95562800     3.86439600
N      -9.58859700     2.65065200     3.56889300
O      -8.71419500     4.71835700     3.32437700
H      -8.95234600     2.26946600     2.86303200
H     -10.25773100     2.05346400     4.01948300
H      -9.93327900     5.04579100     5.64414800
H     -11.16558900     5.19178200     4.39800100
H     -11.07892100     3.71032600     5.37476400
C      -4.83614051     2.04768832    -1.69440219
C      -5.76575051     2.30697632    -0.53987119
O      -5.79416951     3.57761632    -0.18453119
O      -6.42231351     1.42711732    -0.00621719
H      -6.43120351     3.74381332     0.58061781
H      -5.20805351     2.56880332    -2.57867719
H      -3.84659751     2.44926532    -1.47409519
H      -4.77757051     0.98133332    -1.89346119
17 
# or37: geometry number 10. O4-H14 distance: 3.4 
C     -10.49123300     4.49007200     4.89121700
C      -9.52245400     3.95562800     3.86439600
N      -9.58859700     2.65065200     3.56889300
O      -8.71419500     4.71835700     3.32437700
H      -8.95234600     2.26946600     2.86303200
H     -10.25773100     2.05346400     4.01948300
H      -9.93327900     5.04579100     5.64414800
H     -11.16558900     5.19178200     4.39800100
H     -11.07892100     3.71032600     5.37476400
C      -5.02124793     2.12670538    -1.47193523
C      -5.95085793     2.38599338    -0.31740423
O      -5.97927693     3.65663338     0.03793577
O      -6.60742093     1.50613438     0.21624977
H      -6.61631093     3.82283038     0.80308477
H      -5.39316093     2.64782038    -2.35621023
H      -4.03170493     2.52828238    -1.25162823
H      -4.96267793     1.06035038    -1.67099423
17 
# or37: geometry number 11. O4-H14 distance: 3.1 
C     -10.49123300     4.49007200     4.89121700
C      -9.52245400     3.95562800     3.86439600
N      -9.58859700     2.65065200     3.56889300
O      -8.71419500     4.71835700     3.32437700
H      -8.95234600     2.26946600     2.86303200
H     -10.25773100     2.05346400     4.01948300
H      -9.93327900     5.04579100     5.64414800
H     -11.16558900     5.19178200     4.39800100
H     -11.07892100     3.71032600     5.37476400
C      -5.20635535     2.20572243    -1.24946827
C      -6.13596535     2.46501043    -0.09493727
O      -6.16438435     3.73565043     0.26040273
O      -6.79252835     1.58515143     0.43871673
H      -6.80141835     3.90184743     1.02555173
H      -5.57826835     2.72683743    -2.13374327
H      -4.21681235     2.60729943    -1.02916127
H      -5.14778535     1.13936743    -1.44852727
17 
# or37: geometry number 12. O4-H14 distance: 2.9 
C     -10.49123300     4.49007200     4.89121700
C      -9.52245400     3.95562800     3.86439600
N      -9.58859700     2.65065200     3.56889300
O      -8.71419500     4.71835700     3.32437700
H      -8.95234600     2.26946600     2.86303200
H     -10.25773100     2.05346400     4.01948300
H      -9.93327900     5.04579100     5.64414800
H     -11.16558900     5.19178200     4.39800100
H     -11.07892100     3.71032600     5.37476400
C      -5.32976029     2.25840047    -1.10115696
C      -6.25937029     2.51768847     0.05337404
O      -6.28778929     3.78832847     0.40871404
O      -6.91593329     1.63782947     0.58702804
H      -6.92482329     3.95452547     1.17386304
H      -5.70167329     2.77951547    -1.98543196
H      -4.34021729     2.65997747    -0.88084996
H      -5.27119029     1.19204547    -1.30021596
17 
# or37: geometry number 13. O4-H14 distance: 2.7 
C     -10.49123300     4.49007200     4.89121700
C      -9.52245400     3.95562800     3.86439600
N      -9.58859700     2.65065200     3.56889300
O      -8.71419500     4.71835700     3.32437700
H      -8.95234600     2.26946600     2.86303200
H     -10.25773100     2.05346400     4.01948300
H      -9.93327900     5.04579100     5.64414800
H     -11.16558900     5.19178200     4.39800100
H     -11.07892100     3.71032600     5.37476400
C      -5.45316524     2.31107851    -0.95284565
C      -6.38277524     2.57036651     0.20168535
O      -6.41119424     3.84100651     0.55702535
O      -7.03933824     1.69050751     0.73533935
H      -7.04822824     4.00720351     1.32217435
H      -5.82507824     2.83219351    -1.83712065
H      -4.46362224     2.71265551    -0.73253865
H      -5.39459524     1.24472351    -1.15190465
17 
# or37: geometry number 14. O4-H14 distance: 2.5 
C     -10.49123300     4.49007200     4.89121700
C      -9.52245400     3.95562800     3.86439600
N      -9.58859700     2.65065200     3.56889300
O      -8.71419500     4.71835700     3.32437700
H      -8.95234600     2.26946600     2.86303200
H     -10.25773100     2.05346400     4.01948300
H      -9.93327900     5.04579100     5.64414800
H     -11.16558900     5.19178200     4.39800100
H     -11.07892100     3.71032600     5.37476400
C      -5.57657018     2.36375654    -0.80453434
C      -6.50618018     2.62304454     0.34999666
O      -6.53459918     3.89368454     0.70533666
O      -7.16274318     1.74318554     0.88365066
H      -7.17163318     4.05988154     1.47048566
H      -5.94848318     2.88487154    -1.68880934
H      -4.58702718     2.76533354    -0.58422734
H      -5.51800018     1.29740154    -1.00359334
17 
# or37: geometry number 15. O4-H14 distance: 2.4 
C     -10.49123300     4.49007200     4.89121700
C      -9.52245400     3.95562800     3.86439600
N      -9.58859700     2.65065200     3.56889300
O      -8.71419500     4.71835700     3.32437700
H      -8.95234600     2.26946600     2.86303200
H     -10.25773100     2.05346400     4.01948300
H      -9.93327900     5.04579100     5.64414800
H     -11.16558900     5.19178200     4.39800100
H     -11.07892100     3.71032600     5.37476400
C      -5.63827266     2.39009556    -0.73037869
C      -6.56788266     2.64938356     0.42415231
O      -6.59630166     3.92002356     0.77949231
O      -7.22444566     1.76952456     0.95780631
H      -7.23333566     4.08622056     1.54464131
H      -6.01018566     2.91121056    -1.61465369
H      -4.64872966     2.79167256    -0.51007169
H      -5.57970266     1.32374056    -0.92943769
17 
# or37: geometry number 16. O4-H14 distance: 2.3 
C     -10.49123300     4.49007200     4.89121700
C      -9.52245400     3.95562800     3.86439600
N      -9.58859700     2.65065200     3.56889300
O      -8.71419500     4.71835700     3.32437700
H      -8.95234600     2.26946600     2.86303200
H     -10.25773100     2.05346400     4.01948300
H      -9.93327900     5.04579100     5.64414800
H     -11.16558900     5.19178200     4.39800100
H     -11.07892100     3.71032600     5.37476400
C      -5.69997513     2.41643458    -0.65622304
C      -6.62958513     2.67572258     0.49830796
O      -6.65800413     3.94636258     0.85364796
O      -7.28614813     1.79586358     1.03196196
H      -7.29503813     4.11255958     1.61879696
H      -6.07188813     2.93754958    -1.54049804
H      -4.71043213     2.81801158    -0.43591604
H      -5.64140513     1.35007958    -0.85528204
17 
# or37: geometry number 17. O4-H14 distance: 2.2 
C     -10.49123300     4.49007200     4.89121700
C      -9.52245400     3.95562800     3.86439600
N      -9.58859700     2.65065200     3.56889300
O      -8.71419500     4.71835700     3.32437700
H      -8.95234600     2.26946600     2.86303200
H     -10.25773100     2.05346400     4.01948300
H      -9.93327900     5.04579100     5.64414800
H     -11.16558900     5.19178200     4.39800100
H     -11.07892100     3.71032600     5.37476400
C      -5.76167760     2.44277360    -0.58206738
C      -6.69128760     2.70206160     0.57246362
O      -6.71970660     3.97270160     0.92780362
O      -7.34785060     1.82220260     1.10611762
H      -7.35674060     4.13889860     1.69295262
H      -6.13359060     2.96388860    -1.46634238
H      -4.77213460     2.84435060    -0.36176038
H      -5.70310760     1.37641860    -0.78112638
17 
# or37: geometry number 18. O4-H14 distance: 2.1 
C     -10.49123300     4.49007200     4.89121700
C      -9.52245400     3.95562800     3.86439600
N      -9.58859700     2.65065200     3.56889300
O      -8.71419500     4.71835700     3.32437700
H      -8.95234600     2.26946600     2.86303200
H     -10.25773100     2.05346400     4.01948300
H      -9.93327900     5.04579100     5.64414800
H     -11.16558900     5.19178200     4.39800100
H     -11.07892100     3.71032600     5.37476400
C      -5.82338007     2.46911262    -0.50791173
C      -6.75299007     2.72840062     0.64661927
O      -6.78140907     3.99904062     1.00195927
O      -7.40955307     1.84854162     1.18027327
H      -7.41844307     4.16523762     1.76710827
H      -6.19529307     2.99022762    -1.39218673
H      -4.83383707     2.87068962    -0.28760473
H      -5.76481007     1.40275762    -0.70697073
17 
# or37: geometry number 19. O4-H14 distance: 2.0 
C     -10.49123300     4.49007200     4.89121700
C      -9.52245400     3.95562800     3.86439600
N      -9.58859700     2.65065200     3.56889300
O      -8.71419500     4.71835700     3.32437700
H      -8.95234600     2.26946600     2.86303200
H     -10.25773100     2.05346400     4.01948300
H      -9.93327900     5.04579100     5.64414800
H     -11.16558900     5.19178200     4.39800100
H     -11.07892100     3.71032600     5.37476400
C      -5.88508255     2.49545164    -0.43375608
C      -6.81469255     2.75473964     0.72077492
O      -6.84311155     4.02537964     1.07611492
O      -7.47125555     1.87488064     1.25442892
H      -7.48014555     4.19157664     1.84126392
H      -6.25699555     3.01656664    -1.31803108
H      -4.89553955     2.89702864    -0.21344908
H      -5.82651255     1.42909664    -0.63281508
17 
# or37: geometry number 20. O4-H14 distance: 1.9 
C     -10.49123300     4.49007200     4.89121700
C      -9.52245400     3.95562800     3.86439600
N      -9.58859700     2.65065200     3.56889300
O      -8.71419500     4.71835700     3.32437700
H      -8.95234600     2.26946600     2.86303200
H     -10.25773100     2.05346400     4.01948300
H      -9.93327900     5.04579100     5.64414800
H     -11.16558900     5.19178200     4.39800100
H     -11.07892100     3.71032600     5.37476400
C      -5.94678502     2.52179065    -0.35960042
C      -6.87639502     2.78107865     0.79493058
O      -6.90481402     4.05171865     1.15027058
O      -7.53295802     1.90121965     1.32858458
H      -7.54184802     4.21791565     1.91541958
H      -6.31869802     3.04290565    -1.24387542
H      -4.95724202     2.92336765    -0.13929342
H      -5.88821502     1.45543565    -0.55865942
17 
# or37: geometry number 21. O4-H14 distance: 1.8 
C     -10.49123300     4.49007200     4.89121700
C      -9.52245400     3.95562800     3.86439600
N      -9.58859700     2.65065200     3.56889300
O      -8.71419500     4.71835700     3.32437700
H      -8.95234600     2.26946600     2.86303200
H     -10.25773100     2.05346400     4.01948300
H      -9.93327900     5.04579100     5.64414800
H     -11.16558900     5.19178200     4.39800100
H     -11.07892100     3.71032600     5.37476400
C      -6.00848749     2.54812967    -0.28544477
C      -6.93809749     2.80741767     0.86908623
O      -6.96651649     4.07805767     1.22442623
O      -7.59466049     1.92755867     1.40274023
H      -7.60355049     4.24425467     1.98957523
H      -6.38040049     3.06924467    -1.16971977
H      -5.01894449     2.94970667    -0.06513777
H      -5.94991749     1.48177467    -0.48450377
17 
# or37: geometry number 22. O4-H14 distance: 1.7 
C     -10.49123300     4.49007200     4.89121700
C      -9.52245400     3.95562800     3.86439600
N      -9.58859700     2.65065200     3.56889300
O      -8.71419500     4.71835700     3.32437700
H      -8.95234600     2.26946600     2.86303200
H     -10.25773100     2.05346400     4.01948300
H      -9.93327900     5.04579100     5.64414800
H     -11.16558900     5.19178200     4.39800100
H     -11.07892100     3.71032600     5.37476400
C      -6.07018997     2.57446869    -0.21128911
C      -6.99979997     2.83375669     0.94324189
O      -7.02821897     4.10439669     1.29858189
O      -7.65636297     1.95389769     1.47689589
H      -7.66525297     4.27059369     2.06373089
H      -6.44210297     3.09558369    -1.09556411
H      -5.08064697     2.97604569     0.00901789
H      -6.01161997     1.50811369    -0.41034811
17 
# or37: geometry number 23. O4-H14 distance: 1.6 
C     -10.49123300     4.49007200     4.89121700
C      -9.52245400     3.95562800     3.86439600
N      -9.58859700     2.65065200     3.56889300
O      -8.71419500     4.71835700     3.32437700
H      -8.95234600     2.26946600     2.86303200
H     -10.25773100     2.05346400     4.01948300
H      -9.93327900     5.04579100     5.64414800
H     -11.16558900     5.19178200     4.39800100
H     -11.07892100     3.71032600     5.37476400
C      -6.13189244     2.60080771    -0.13713346
C      -7.06150244     2.86009571     1.01739754
O      -7.08992144     4.13073571     1.37273754
O      -7.71806544     1.98023671     1.55105154
H      -7.72695544     4.29693271     2.13788654
H      -6.50380544     3.12192271    -1.02140846
H      -5.14234944     3.00238471     0.08317354
H      -6.07332244     1.53445271    -0.33619246
17 
# or37: geometry number 24. O4-H14 distance: 1.5 
C     -10.49123300     4.49007200     4.89121700
C      -9.52245400     3.95562800     3.86439600
N      -9.58859700     2.65065200     3.56889300
O      -8.71419500     4.71835700     3.32437700
H      -8.95234600     2.26946600     2.86303200
H     -10.25773100     2.05346400     4.01948300
H      -9.93327900     5.04579100     5.64414800
H     -11.16558900     5.19178200     4.39800100
H     -11.07892100     3.71032600     5.37476400
C      -6.19359491     2.62714673    -0.06297781
C      -7.12320491     2.88643473     1.09155319
O      -7.15162391     4.15707473     1.44689319
O      -7.77976791     2.00657573     1.62520719
H      -7.78865791     4.32327173     2.21204219
H      -6.56550791     3.14826173    -0.94725281
H      -5.20405191     3.02872373     0.15732919
H      -6.13502491     1.56079173    -0.26203681
17 
# or37: geometry number 25. O4-H14 distance: 1.4 
C     -10.49123300     4.49007200     4.89121700
C      -9.52245400     3.95562800     3.86439600
N      -9.58859700     2.65065200     3.56889300
O      -8.71419500     4.71835700     3.32437700
H      -8.95234600     2.26946600     2.86303200
H     -10.25773100     2.05346400     4.01948300
H      -9.93327900     5.04579100     5.64414800
H     -11.16558900     5.19178200     4.39800100
H     -11.07892100     3.71032600     5.37476400
C      -6.25529738     2.65348574     0.01117785
C      -7.18490738     2.91277374     1.16570885
O      -7.21332638     4.18341374     1.52104885
O      -7.84147038     2.03291474     1.69936285
H      -7.85036038     4.34961074     2.28619785
H      -6.62721038     3.17460074    -0.87309715
H      -5.26575438     3.05506274     0.23148485
H      -6.19672738     1.58713074    -0.18788115
17 
# or37: geometry number 26. O4-H14 distance: 1.35 
C     -10.49123300     4.49007200     4.89121700
C      -9.52245400     3.95562800     3.86439600
N      -9.58859700     2.65065200     3.56889300
O      -8.71419500     4.71835700     3.32437700
H      -8.95234600     2.26946600     2.86303200
H     -10.25773100     2.05346400     4.01948300
H      -9.93327900     5.04579100     5.64414800
H     -11.16558900     5.19178200     4.39800100
H     -11.07892100     3.71032600     5.37476400
C      -6.28614862     2.66665525     0.04825567
C      -7.21575862     2.92594325     1.20278667
O      -7.24417762     4.19658325     1.55812667
O      -7.87232162     2.04608425     1.73644067
H      -7.88121162     4.36278025     2.32327567
H      -6.65806162     3.18777025    -0.83601933
H      -5.29660562     3.06823225     0.26856267
H      -6.22757862     1.60030025    -0.15080333
17 
# or37: geometry number 27. O4-H14 distance: 1.3 
C     -10.49123300     4.49007200     4.89121700
C      -9.52245400     3.95562800     3.86439600
N      -9.58859700     2.65065200     3.56889300
O      -8.71419500     4.71835700     3.32437700
H      -8.95234600     2.26946600     2.86303200
H     -10.25773100     2.05346400     4.01948300
H      -9.93327900     5.04579100     5.64414800
H     -11.16558900     5.19178200     4.39800100
H     -11.07892100     3.71032600     5.37476400
C      -6.31699986     2.67982476     0.08533350
C      -7.24660986     2.93911276     1.23986450
O      -7.27502886     4.20975276     1.59520450
O      -7.90317286     2.05925376     1.77351850
H      -7.91206286     4.37594976     2.36035350
H      -6.68891286     3.20093976    -0.79894150
H      -5.32745686     3.08140176     0.30564050
H      -6.25842986     1.61346976    -0.11372550
17 
# or37: geometry number 28. O4-H14 distance: 1.25 
C     -10.49123300     4.49007200     4.89121700
C      -9.52245400     3.95562800     3.86439600
N      -9.58859700     2.65065200     3.56889300
O      -8.71419500     4.71835700     3.32437700
H      -8.95234600     2.26946600     2.86303200
H     -10.25773100     2.05346400     4.01948300
H      -9.93327900     5.04579100     5.64414800
H     -11.16558900     5.19178200     4.39800100
H     -11.07892100     3.71032600     5.37476400
C      -6.34785109     2.69299427     0.12241133
C      -7.27746109     2.95228227     1.27694233
O      -7.30588009     4.22292227     1.63228233
O      -7.93402409     2.07242327     1.81059633
H      -7.94291409     4.38911927     2.39743133
H      -6.71976409     3.21410927    -0.76186367
H      -5.35830809     3.09457127     0.34271833
H      -6.28928109     1.62663927    -0.07664767
17 
# or37: geometry number 29. O4-H14 distance: 1.2 
C     -10.49123300     4.49007200     4.89121700
C      -9.52245400     3.95562800     3.86439600
N      -9.58859700     2.65065200     3.56889300
O      -8.71419500     4.71835700     3.32437700
H      -8.95234600     2.26946600     2.86303200
H     -10.25773100     2.05346400     4.01948300
H      -9.93327900     5.04579100     5.64414800
H     -11.16558900     5.19178200     4.39800100
H     -11.07892100     3.71032600     5.37476400
C      -6.37870233     2.70616378     0.15948915
C      -7.30831233     2.96545178     1.31402015
O      -7.33673133     4.23609178     1.66936015
O      -7.96487533     2.08559278     1.84767415
H      -7.97376533     4.40228878     2.43450915
H      -6.75061533     3.22727878    -0.72478585
H      -5.38915933     3.10774078     0.37979615
H      -6.32013233     1.63980878    -0.03956985
17 
# or37: geometry number 30. O4-H14 distance: 1.15 
C     -10.49123300     4.49007200     4.89121700
C      -9.52245400     3.95562800     3.86439600
N      -9.58859700     2.65065200     3.56889300
O      -8.71419500     4.71835700     3.32437700
H      -8.95234600     2.26946600     2.86303200
H     -10.25773100     2.05346400     4.01948300
H      -9.93327900     5.04579100     5.64414800
H     -11.16558900     5.19178200     4.39800100
H     -11.07892100     3.71032600     5.37476400
C      -6.40955356     2.71933329     0.19656698
C      -7.33916356     2.97862129     1.35109798
O      -7.36758256     4.24926129     1.70643798
O      -7.99572656     2.09876229     1.88475198
H      -8.00461656     4.41545829     2.47158698
H      -6.78146656     3.24044829    -0.68770802
H      -5.42001056     3.12091029     0.41687398
H      -6.35098356     1.65297829    -0.00249202
17 
# or37: geometry number 31. O4-H14 distance: 1.1 
C     -10.49123300     4.49007200     4.89121700
C      -9.52245400     3.95562800     3.86439600
N      -9.58859700     2.65065200     3.56889300
O      -8.71419500     4.71835700     3.32437700
H      -8.95234600     2.26946600     2.86303200
H     -10.25773100     2.05346400     4.01948300
H      -9.93327900     5.04579100     5.64414800
H     -11.16558900     5.19178200     4.39800100
H     -11.07892100     3.71032600     5.37476400
C      -6.44040480     2.73250280     0.23364481
C      -7.37001480     2.99179080     1.38817581
O      -7.39843380     4.26243080     1.74351581
O      -8.02657780     2.11193180     1.92182981
H      -8.03546780     4.42862780     2.50866481
H      -6.81231780     3.25361780    -0.65063019
H      -5.45086180     3.13407980     0.45395181
H      -6.38183480     1.66614780     0.03458581
17 
# or37: geometry number 32. O4-H14 distance: 1.05 
C     -10.49123300     4.49007200     4.89121700
C      -9.52245400     3.95562800     3.86439600
N      -9.58859700     2.65065200     3.56889300
O      -8.71419500     4.71835700     3.32437700
H      -8.95234600     2.26946600     2.86303200
H     -10.25773100     2.05346400     4.01948300
H      -9.93327900     5.04579100     5.64414800
H     -11.16558900     5.19178200     4.39800100
H     -11.07892100     3.71032600     5.37476400
C      -6.47125604     2.74567231     0.27072264
C      -7.40086604     3.00496031     1.42525364
O      -7.42928504     4.27560031     1.78059364
O      -8.05742904     2.12510131     1.95890764
H      -8.06631904     4.44179731     2.54574264
H      -6.84316904     3.26678731    -0.61355236
H      -5.48171304     3.14724931     0.49102964
H      -6.41268604     1.67931731     0.07166364
17 
# or37: geometry number 33. O4-H14 distance: 1.0 
C     -10.49123300     4.49007200     4.89121700
C      -9.52245400     3.95562800     3.86439600
N      -9.58859700     2.65065200     3.56889300
O      -8.71419500     4.71835700     3.32437700
H      -8.95234600     2.26946600     2.86303200
H     -10.25773100     2.05346400     4.01948300
H      -9.93327900     5.04579100     5.64414800
H     -11.16558900     5.19178200     4.39800100
H     -11.07892100     3.71032600     5.37476400
C      -6.50210727     2.75884182     0.30780046
C      -7.43171727     3.01812982     1.46233146
O      -7.46013627     4.28876982     1.81767146
O      -8.08828027     2.13827082     1.99598546
H      -8.09717027     4.45496682     2.58282046
H      -6.87402027     3.27995682    -0.57647454
H      -5.51256427     3.16041882     0.52810746
H      -6.44353727     1.69248682     0.10874146
