17 
# or4: geometry number 1. C1-O13 distance: 10 
C      -1.76385548     1.24451357     1.50421955
C      -0.42393585     1.12823217     0.80425496
N      -0.02065181    -0.14052012     0.50912340
O       0.24289828     2.10279409     0.51633022
H       0.84403881    -0.26354728     0.00895640
H      -0.58140979    -0.94561633     0.71923069
H      -1.65993136     1.93610059     2.33900570
H      -2.48278454     1.67559645     0.80541559
H      -2.15208696     0.29251086     1.86697147
C     -13.01053458     1.97150318     5.97023390
C     -11.67761009     2.09046362     6.65156410
O     -11.81689621     2.30519713     7.98345977
O     -10.60122120     2.01144112     6.12079721
H     -10.92216540     2.37076799     8.35294555
H     -13.57716382     1.14789849     6.40725904
H     -13.58860276     2.88353004     6.12651967
H     -12.86218839     1.80064973     4.90800504
17 
# or4: geometry number 2. C1-O13 distance: 9 
C      -1.76385548     1.24451357     1.50421955
C      -0.42393585     1.12823217     0.80425496
N      -0.02065181    -0.14052012     0.50912340
O       0.24289828     2.10279409     0.51633022
H       0.84403881    -0.26354728     0.00895640
H      -0.58140979    -0.94561633     0.71923069
H      -1.65993136     1.93610059     2.33900570
H      -2.48278454     1.67559645     0.80541559
H      -2.15208696     0.29251086     1.86697147
C     -12.12679801     1.89481043     5.50857613
C     -10.79387352     2.01377087     6.18990633
O     -10.93315964     2.22850438     7.52180200
O      -9.71748463     1.93474837     5.65913944
H     -10.03842883     2.29407524     7.89128778
H     -12.69342725     1.07120574     5.94560127
H     -12.70486619     2.80683729     5.66486190
H     -11.97845182     1.72395698     4.44634727
17 
# or4: geometry number 3. C1-O13 distance: 8 
C      -1.76385548     1.24451357     1.50421955
C      -0.42393585     1.12823217     0.80425496
N      -0.02065181    -0.14052012     0.50912340
O       0.24289828     2.10279409     0.51633022
H       0.84403881    -0.26354728     0.00895640
H      -0.58140979    -0.94561633     0.71923069
H      -1.65993136     1.93610059     2.33900570
H      -2.48278454     1.67559645     0.80541559
H      -2.15208696     0.29251086     1.86697147
C     -11.24306143     1.81811767     5.04691837
C      -9.91013694     1.93707811     5.72824857
O     -10.04942306     2.15181162     7.06014424
O      -8.83374805     1.85805561     5.19748168
H      -9.15469225     2.21738248     7.42963002
H     -11.80969067     0.99451298     5.48394351
H     -11.82112961     2.73014453     5.20320414
H     -11.09471524     1.64726422     3.98468951
17 
# or4: geometry number 4. C1-O13 distance: 7 
C      -1.76385548     1.24451357     1.50421955
C      -0.42393585     1.12823217     0.80425496
N      -0.02065181    -0.14052012     0.50912340
O       0.24289828     2.10279409     0.51633022
H       0.84403881    -0.26354728     0.00895640
H      -0.58140979    -0.94561633     0.71923069
H      -1.65993136     1.93610059     2.33900570
H      -2.48278454     1.67559645     0.80541559
H      -2.15208696     0.29251086     1.86697147
C     -10.35932486     1.74142492     4.58526060
C      -9.02640037     1.86038536     5.26659080
O      -9.16568649     2.07511887     6.59848647
O      -7.95001148     1.78136286     4.73582391
H      -8.27095568     2.14068973     6.96797225
H     -10.92595410     0.91782023     5.02228574
H     -10.93739304     2.65345178     4.74154637
H     -10.21097867     1.57057147     3.52303174
17 
# or4: geometry number 5. C1-O13 distance: 6 
C      -1.76385548     1.24451357     1.50421955
C      -0.42393585     1.12823217     0.80425496
N      -0.02065181    -0.14052012     0.50912340
O       0.24289828     2.10279409     0.51633022
H       0.84403881    -0.26354728     0.00895640
H      -0.58140979    -0.94561633     0.71923069
H      -1.65993136     1.93610059     2.33900570
H      -2.48278454     1.67559645     0.80541559
H      -2.15208696     0.29251086     1.86697147
C      -9.47558829     1.66473216     4.12360284
C      -8.14266380     1.78369260     4.80493304
O      -8.28194992     1.99842611     6.13682871
O      -7.06627491     1.70467010     4.27416615
H      -7.38721911     2.06399697     6.50631449
H     -10.04221753     0.84112747     4.56062798
H     -10.05365647     2.57675902     4.27988861
H      -9.32724210     1.49387871     3.06137398
17 
# or4: geometry number 6. C1-O13 distance: 5 
C      -1.76385548     1.24451357     1.50421955
C      -0.42393585     1.12823217     0.80425496
N      -0.02065181    -0.14052012     0.50912340
O       0.24289828     2.10279409     0.51633022
H       0.84403881    -0.26354728     0.00895640
H      -0.58140979    -0.94561633     0.71923069
H      -1.65993136     1.93610059     2.33900570
H      -2.48278454     1.67559645     0.80541559
H      -2.15208696     0.29251086     1.86697147
C      -8.59185172     1.58803941     3.66194507
C      -7.25892723     1.70699985     4.34327527
O      -7.39821335     1.92173336     5.67517094
O      -6.18253834     1.62797735     3.81250838
H      -6.50348254     1.98730422     6.04465672
H      -9.15848096     0.76443472     4.09897021
H      -9.16991990     2.50006627     3.81823084
H      -8.44350553     1.41718596     2.59971621
17 
# or4: geometry number 7. C1-O13 distance: 4.7 
C      -1.76385548     1.24451357     1.50421955
C      -0.42393585     1.12823217     0.80425496
N      -0.02065181    -0.14052012     0.50912340
O       0.24289828     2.10279409     0.51633022
H       0.84403881    -0.26354728     0.00895640
H      -0.58140979    -0.94561633     0.71923069
H      -1.65993136     1.93610059     2.33900570
H      -2.48278454     1.67559645     0.80541559
H      -2.15208696     0.29251086     1.86697147
C      -8.32673075     1.56503158     3.52344774
C      -6.99380626     1.68399202     4.20477794
O      -7.13309238     1.89872553     5.53667361
O      -5.91741737     1.60496952     3.67401105
H      -6.23836157     1.96429639     5.90615939
H      -8.89335999     0.74142689     3.96047288
H      -8.90479893     2.47705844     3.67973351
H      -8.17838456     1.39417813     2.46121888
17 
# or4: geometry number 8. C1-O13 distance: 4.4 
C      -1.76385548     1.24451357     1.50421955
C      -0.42393585     1.12823217     0.80425496
N      -0.02065181    -0.14052012     0.50912340
O       0.24289828     2.10279409     0.51633022
H       0.84403881    -0.26354728     0.00895640
H      -0.58140979    -0.94561633     0.71923069
H      -1.65993136     1.93610059     2.33900570
H      -2.48278454     1.67559645     0.80541559
H      -2.15208696     0.29251086     1.86697147
C      -8.06160978     1.54202375     3.38495041
C      -6.72868529     1.66098419     4.06628061
O      -6.86797141     1.87571770     5.39817628
O      -5.65229640     1.58196169     3.53551372
H      -5.97324060     1.94128856     5.76766206
H      -8.62823902     0.71841906     3.82197555
H      -8.63967796     2.45405061     3.54123618
H      -7.91326359     1.37117030     2.32272155
17 
# or4: geometry number 9. C1-O13 distance: 4.2 
C      -1.76385548     1.24451357     1.50421955
C      -0.42393585     1.12823217     0.80425496
N      -0.02065181    -0.14052012     0.50912340
O       0.24289828     2.10279409     0.51633022
H       0.84403881    -0.26354728     0.00895640
H      -0.58140979    -0.94561633     0.71923069
H      -1.65993136     1.93610059     2.33900570
H      -2.48278454     1.67559645     0.80541559
H      -2.15208696     0.29251086     1.86697147
C      -7.88486246     1.52668520     3.29261886
C      -6.55193797     1.64564564     3.97394906
O      -6.69122409     1.86037915     5.30584473
O      -5.47554908     1.56662314     3.44318217
H      -5.79649328     1.92595001     5.67533051
H      -8.45149170     0.70308051     3.72964400
H      -8.46293064     2.43871206     3.44890463
H      -7.73651627     1.35583175     2.23039000
17 
# or4: geometry number 10. C1-O13 distance: 4 
C      -1.76385548     1.24451357     1.50421955
C      -0.42393585     1.12823217     0.80425496
N      -0.02065181    -0.14052012     0.50912340
O       0.24289828     2.10279409     0.51633022
H       0.84403881    -0.26354728     0.00895640
H      -0.58140979    -0.94561633     0.71923069
H      -1.65993136     1.93610059     2.33900570
H      -2.48278454     1.67559645     0.80541559
H      -2.15208696     0.29251086     1.86697147
C      -7.70811515     1.51134665     3.20028730
C      -6.37519066     1.63030709     3.88161750
O      -6.51447678     1.84504060     5.21351317
O      -5.29880177     1.55128459     3.35085061
H      -5.61974597     1.91061146     5.58299895
H      -8.27474439     0.68774196     3.63731244
H      -8.28618333     2.42337351     3.35657307
H      -7.55976896     1.34049320     2.13805844
17 
# or4: geometry number 11. C1-O13 distance: 3.8 
C      -1.76385548     1.24451357     1.50421955
C      -0.42393585     1.12823217     0.80425496
N      -0.02065181    -0.14052012     0.50912340
O       0.24289828     2.10279409     0.51633022
H       0.84403881    -0.26354728     0.00895640
H      -0.58140979    -0.94561633     0.71923069
H      -1.65993136     1.93610059     2.33900570
H      -2.48278454     1.67559645     0.80541559
H      -2.15208696     0.29251086     1.86697147
C      -7.53136783     1.49600810     3.10795575
C      -6.19844334     1.61496854     3.78928595
O      -6.33772946     1.82970205     5.12118162
O      -5.12205445     1.53594604     3.25851906
H      -5.44299865     1.89527291     5.49066740
H      -8.09799707     0.67240341     3.54498089
H      -8.10943601     2.40803496     3.26424152
H      -7.38302164     1.32515465     2.04572689
17 
# or4: geometry number 12. C1-O13 distance: 3.7 
C      -1.76385548     1.24451357     1.50421955
C      -0.42393585     1.12823217     0.80425496
N      -0.02065181    -0.14052012     0.50912340
O       0.24289828     2.10279409     0.51633022
H       0.84403881    -0.26354728     0.00895640
H      -0.58140979    -0.94561633     0.71923069
H      -1.65993136     1.93610059     2.33900570
H      -2.48278454     1.67559645     0.80541559
H      -2.15208696     0.29251086     1.86697147
C      -7.44299418     1.48833882     3.06178997
C      -6.11006969     1.60729926     3.74312017
O      -6.24935581     1.82203277     5.07501584
O      -5.03368080     1.52827676     3.21235328
H      -5.35462500     1.88760363     5.44450162
H      -8.00962342     0.66473413     3.49881511
H      -8.02106236     2.40036568     3.21807574
H      -7.29464799     1.31748537     1.99956111
17 
# or4: geometry number 13. C1-O13 distance: 3.6 
C      -1.76385548     1.24451357     1.50421955
C      -0.42393585     1.12823217     0.80425496
N      -0.02065181    -0.14052012     0.50912340
O       0.24289828     2.10279409     0.51633022
H       0.84403881    -0.26354728     0.00895640
H      -0.58140979    -0.94561633     0.71923069
H      -1.65993136     1.93610059     2.33900570
H      -2.48278454     1.67559645     0.80541559
H      -2.15208696     0.29251086     1.86697147
C      -7.35462052     1.48066955     3.01562420
C      -6.02169603     1.59962999     3.69695440
O      -6.16098215     1.81436350     5.02885007
O      -4.94530714     1.52060749     3.16618751
H      -5.26625134     1.87993436     5.39833585
H      -7.92124976     0.65706486     3.45264934
H      -7.93268870     2.39269641     3.17190997
H      -7.20627433     1.30981610     1.95339534
17 
# or4: geometry number 14. C1-O13 distance: 3.5 
C      -1.76385548     1.24451357     1.50421955
C      -0.42393585     1.12823217     0.80425496
N      -0.02065181    -0.14052012     0.50912340
O       0.24289828     2.10279409     0.51633022
H       0.84403881    -0.26354728     0.00895640
H      -0.58140979    -0.94561633     0.71923069
H      -1.65993136     1.93610059     2.33900570
H      -2.48278454     1.67559645     0.80541559
H      -2.15208696     0.29251086     1.86697147
C      -7.26624686     1.47300027     2.96945842
C      -5.93332237     1.59196071     3.65078862
O      -6.07260849     1.80669422     4.98268429
O      -4.85693348     1.51293821     3.12002173
H      -5.17787768     1.87226508     5.35217007
H      -7.83287610     0.64939558     3.40648356
H      -7.84431504     2.38502713     3.12574419
H      -7.11790067     1.30214682     1.90722956
17 
# or4: geometry number 15. C1-O13 distance: 3.4 
C      -1.76385548     1.24451357     1.50421955
C      -0.42393585     1.12823217     0.80425496
N      -0.02065181    -0.14052012     0.50912340
O       0.24289828     2.10279409     0.51633022
H       0.84403881    -0.26354728     0.00895640
H      -0.58140979    -0.94561633     0.71923069
H      -1.65993136     1.93610059     2.33900570
H      -2.48278454     1.67559645     0.80541559
H      -2.15208696     0.29251086     1.86697147
C      -7.17787320     1.46533100     2.92329264
C      -5.84494871     1.58429144     3.60462284
O      -5.98423483     1.79902495     4.93651851
O      -4.76855982     1.50526894     3.07385595
H      -5.08950402     1.86459581     5.30600429
H      -7.74450244     0.64172631     3.36031778
H      -7.75594138     2.37735786     3.07957841
H      -7.02952701     1.29447755     1.86106378
17 
# or4: geometry number 16. C1-O13 distance: 3.3 
C      -1.76385548     1.24451357     1.50421955
C      -0.42393585     1.12823217     0.80425496
N      -0.02065181    -0.14052012     0.50912340
O       0.24289828     2.10279409     0.51633022
H       0.84403881    -0.26354728     0.00895640
H      -0.58140979    -0.94561633     0.71923069
H      -1.65993136     1.93610059     2.33900570
H      -2.48278454     1.67559645     0.80541559
H      -2.15208696     0.29251086     1.86697147
C      -7.08949955     1.45766172     2.87712687
C      -5.75657506     1.57662216     3.55845707
O      -5.89586118     1.79135567     4.89035274
O      -4.68018617     1.49759966     3.02769018
H      -5.00113037     1.85692653     5.25983852
H      -7.65612879     0.63405703     3.31415201
H      -7.66756773     2.36968858     3.03341264
H      -6.94115336     1.28680827     1.81489801
17 
# or4: geometry number 17. C1-O13 distance: 3.2 
C      -1.76385548     1.24451357     1.50421955
C      -0.42393585     1.12823217     0.80425496
N      -0.02065181    -0.14052012     0.50912340
O       0.24289828     2.10279409     0.51633022
H       0.84403881    -0.26354728     0.00895640
H      -0.58140979    -0.94561633     0.71923069
H      -1.65993136     1.93610059     2.33900570
H      -2.48278454     1.67559645     0.80541559
H      -2.15208696     0.29251086     1.86697147
C      -7.00112589     1.44999245     2.83096109
C      -5.66820140     1.56895289     3.51229129
O      -5.80748752     1.78368640     4.84418696
O      -4.59181251     1.48993039     2.98152440
H      -4.91275671     1.84925726     5.21367274
H      -7.56775513     0.62638776     3.26798623
H      -7.57919407     2.36201931     2.98724686
H      -6.85277970     1.27913900     1.76873223
17 
# or4: geometry number 18. C1-O13 distance: 3.1 
C      -1.76385548     1.24451357     1.50421955
C      -0.42393585     1.12823217     0.80425496
N      -0.02065181    -0.14052012     0.50912340
O       0.24289828     2.10279409     0.51633022
H       0.84403881    -0.26354728     0.00895640
H      -0.58140979    -0.94561633     0.71923069
H      -1.65993136     1.93610059     2.33900570
H      -2.48278454     1.67559645     0.80541559
H      -2.15208696     0.29251086     1.86697147
C      -6.91275223     1.44232317     2.78479531
C      -5.57982774     1.56128361     3.46612551
O      -5.71911386     1.77601712     4.79802118
O      -4.50343885     1.48226111     2.93535862
H      -4.82438305     1.84158798     5.16750696
H      -7.47938147     0.61871848     3.22182045
H      -7.49082041     2.35435003     2.94108108
H      -6.76440604     1.27146972     1.72256645
17 
# or4: geometry number 19. C1-O13 distance: 3 
C      -1.76385548     1.24451357     1.50421955
C      -0.42393585     1.12823217     0.80425496
N      -0.02065181    -0.14052012     0.50912340
O       0.24289828     2.10279409     0.51633022
H       0.84403881    -0.26354728     0.00895640
H      -0.58140979    -0.94561633     0.71923069
H      -1.65993136     1.93610059     2.33900570
H      -2.48278454     1.67559645     0.80541559
H      -2.15208696     0.29251086     1.86697147
C      -6.82437858     1.43465390     2.73862954
C      -5.49145409     1.55361434     3.41995974
O      -5.63074021     1.76834785     4.75185541
O      -4.41506520     1.47459184     2.88919285
H      -4.73600940     1.83391871     5.12134119
H      -7.39100782     0.61104921     3.17565468
H      -7.40244676     2.34668076     2.89491531
H      -6.67603239     1.26380045     1.67640068
17 
# or4: geometry number 20. C1-O13 distance: 2.9 
C      -1.76385548     1.24451357     1.50421955
C      -0.42393585     1.12823217     0.80425496
N      -0.02065181    -0.14052012     0.50912340
O       0.24289828     2.10279409     0.51633022
H       0.84403881    -0.26354728     0.00895640
H      -0.58140979    -0.94561633     0.71923069
H      -1.65993136     1.93610059     2.33900570
H      -2.48278454     1.67559645     0.80541559
H      -2.15208696     0.29251086     1.86697147
C      -6.73600492     1.42698462     2.69246376
C      -5.40308043     1.54594506     3.37379396
O      -5.54236655     1.76067857     4.70568963
O      -4.32669154     1.46692256     2.84302707
H      -4.64763574     1.82624943     5.07517541
H      -7.30263416     0.60337993     3.12948890
H      -7.31407310     2.33901148     2.84874953
H      -6.58765873     1.25613117     1.63023490
17 
# or4: geometry number 21. C1-O13 distance: 2.8 
C      -1.76385548     1.24451357     1.50421955
C      -0.42393585     1.12823217     0.80425496
N      -0.02065181    -0.14052012     0.50912340
O       0.24289828     2.10279409     0.51633022
H       0.84403881    -0.26354728     0.00895640
H      -0.58140979    -0.94561633     0.71923069
H      -1.65993136     1.93610059     2.33900570
H      -2.48278454     1.67559645     0.80541559
H      -2.15208696     0.29251086     1.86697147
C      -6.64763126     1.41931534     2.64629798
C      -5.31470677     1.53827578     3.32762818
O      -5.45399289     1.75300929     4.65952385
O      -4.23831788     1.45925328     2.79686129
H      -4.55926208     1.81858015     5.02900963
H      -7.21426050     0.59571065     3.08332312
H      -7.22569944     2.33134220     2.80258375
H      -6.49928507     1.24846189     1.58406912
17 
# or4: geometry number 22. C1-O13 distance: 2.7 
C      -1.76385548     1.24451357     1.50421955
C      -0.42393585     1.12823217     0.80425496
N      -0.02065181    -0.14052012     0.50912340
O       0.24289828     2.10279409     0.51633022
H       0.84403881    -0.26354728     0.00895640
H      -0.58140979    -0.94561633     0.71923069
H      -1.65993136     1.93610059     2.33900570
H      -2.48278454     1.67559645     0.80541559
H      -2.15208696     0.29251086     1.86697147
C      -6.55925760     1.41164607     2.60013221
C      -5.22633311     1.53060651     3.28146241
O      -5.36561923     1.74534002     4.61335808
O      -4.14994422     1.45158401     2.75069552
H      -4.47088842     1.81091088     4.98284386
H      -7.12588684     0.58804138     3.03715735
H      -7.13732578     2.32367293     2.75641798
H      -6.41091141     1.24079262     1.53790335
17 
# or4: geometry number 23. C1-O13 distance: 2.65 
C      -1.76385548     1.24451357     1.50421955
C      -0.42393585     1.12823217     0.80425496
N      -0.02065181    -0.14052012     0.50912340
O       0.24289828     2.10279409     0.51633022
H       0.84403881    -0.26354728     0.00895640
H      -0.58140979    -0.94561633     0.71923069
H      -1.65993136     1.93610059     2.33900570
H      -2.48278454     1.67559645     0.80541559
H      -2.15208696     0.29251086     1.86697147
C      -6.51507078     1.40781143     2.57704932
C      -5.18214629     1.52677187     3.25837952
O      -5.32143241     1.74150538     4.59027519
O      -4.10575740     1.44774937     2.72761263
H      -4.42670160     1.80707624     4.95976097
H      -7.08170002     0.58420674     3.01407446
H      -7.09313896     2.31983829     2.73333509
H      -6.36672459     1.23695798     1.51482046
17 
# or4: geometry number 24. C1-O13 distance: 2.6 
C      -1.76385548     1.24451357     1.50421955
C      -0.42393585     1.12823217     0.80425496
N      -0.02065181    -0.14052012     0.50912340
O       0.24289828     2.10279409     0.51633022
H       0.84403881    -0.26354728     0.00895640
H      -0.58140979    -0.94561633     0.71923069
H      -1.65993136     1.93610059     2.33900570
H      -2.48278454     1.67559645     0.80541559
H      -2.15208696     0.29251086     1.86697147
C      -6.47088395     1.40397679     2.55396643
C      -5.13795946     1.52293723     3.23529663
O      -5.27724558     1.73767074     4.56719230
O      -4.06157057     1.44391473     2.70452974
H      -4.38251477     1.80324160     4.93667808
H      -7.03751319     0.58037210     2.99099157
H      -7.04895213     2.31600365     2.71025220
H      -6.32253776     1.23312334     1.49173757
17 
# or4: geometry number 25. C1-O13 distance: 2.55 
C      -1.76385548     1.24451357     1.50421955
C      -0.42393585     1.12823217     0.80425496
N      -0.02065181    -0.14052012     0.50912340
O       0.24289828     2.10279409     0.51633022
H       0.84403881    -0.26354728     0.00895640
H      -0.58140979    -0.94561633     0.71923069
H      -1.65993136     1.93610059     2.33900570
H      -2.48278454     1.67559645     0.80541559
H      -2.15208696     0.29251086     1.86697147
C      -6.42669712     1.40014216     2.53088354
C      -5.09377263     1.51910260     3.21221374
O      -5.23305875     1.73383611     4.54410941
O      -4.01738374     1.44008010     2.68144685
H      -4.33832794     1.79940697     4.91359519
H      -6.99332636     0.57653747     2.96790868
H      -7.00476530     2.31216902     2.68716931
H      -6.27835093     1.22928871     1.46865468
17 
# or4: geometry number 26. C1-O13 distance: 2.5 
C      -1.76385548     1.24451357     1.50421955
C      -0.42393585     1.12823217     0.80425496
N      -0.02065181    -0.14052012     0.50912340
O       0.24289828     2.10279409     0.51633022
H       0.84403881    -0.26354728     0.00895640
H      -0.58140979    -0.94561633     0.71923069
H      -1.65993136     1.93610059     2.33900570
H      -2.48278454     1.67559645     0.80541559
H      -2.15208696     0.29251086     1.86697147
C      -6.38251029     1.39630752     2.50780065
C      -5.04958580     1.51526796     3.18913085
O      -5.18887192     1.73000147     4.52102652
O      -3.97319691     1.43624546     2.65836396
H      -4.29414111     1.79557233     4.89051230
H      -6.94913953     0.57270283     2.94482579
H      -6.96057847     2.30833438     2.66408642
H      -6.23416410     1.22545407     1.44557179
17 
# or4: geometry number 27. C1-O13 distance: 2.45 
C      -1.76385548     1.24451357     1.50421955
C      -0.42393585     1.12823217     0.80425496
N      -0.02065181    -0.14052012     0.50912340
O       0.24289828     2.10279409     0.51633022
H       0.84403881    -0.26354728     0.00895640
H      -0.58140979    -0.94561633     0.71923069
H      -1.65993136     1.93610059     2.33900570
H      -2.48278454     1.67559645     0.80541559
H      -2.15208696     0.29251086     1.86697147
C      -6.33832346     1.39247288     2.48471777
C      -5.00539897     1.51143332     3.16604797
O      -5.14468509     1.72616683     4.49794364
O      -3.92901008     1.43241082     2.63528108
H      -4.24995428     1.79173769     4.86742942
H      -6.90495270     0.56886819     2.92174291
H      -6.91639164     2.30449974     2.64100354
H      -6.18997727     1.22161943     1.42248891
17 
# or4: geometry number 28. C1-O13 distance: 2.4 
C      -1.76385548     1.24451357     1.50421955
C      -0.42393585     1.12823217     0.80425496
N      -0.02065181    -0.14052012     0.50912340
O       0.24289828     2.10279409     0.51633022
H       0.84403881    -0.26354728     0.00895640
H      -0.58140979    -0.94561633     0.71923069
H      -1.65993136     1.93610059     2.33900570
H      -2.48278454     1.67559645     0.80541559
H      -2.15208696     0.29251086     1.86697147
C      -6.29413663     1.38863824     2.46163488
C      -4.96121214     1.50759868     3.14296508
O      -5.10049826     1.72233219     4.47486075
O      -3.88482325     1.42857618     2.61219819
H      -4.20576745     1.78790305     4.84434653
H      -6.86076587     0.56503355     2.89866002
H      -6.87220481     2.30066510     2.61792065
H      -6.14579044     1.21778479     1.39940602
17 
# or4: geometry number 29. C1-O13 distance: 2.35 
C      -1.76385548     1.24451357     1.50421955
C      -0.42393585     1.12823217     0.80425496
N      -0.02065181    -0.14052012     0.50912340
O       0.24289828     2.10279409     0.51633022
H       0.84403881    -0.26354728     0.00895640
H      -0.58140979    -0.94561633     0.71923069
H      -1.65993136     1.93610059     2.33900570
H      -2.48278454     1.67559645     0.80541559
H      -2.15208696     0.29251086     1.86697147
C      -6.24994980     1.38480360     2.43855199
C      -4.91702531     1.50376404     3.11988219
O      -5.05631143     1.71849755     4.45177786
O      -3.84063642     1.42474154     2.58911530
H      -4.16158062     1.78406841     4.82126364
H      -6.81657904     0.56119891     2.87557713
H      -6.82801798     2.29683046     2.59483776
H      -6.10160361     1.21395015     1.37632313
17 
# or4: geometry number 30. C1-O13 distance: 2.3 
C      -1.76385548     1.24451357     1.50421955
C      -0.42393585     1.12823217     0.80425496
N      -0.02065181    -0.14052012     0.50912340
O       0.24289828     2.10279409     0.51633022
H       0.84403881    -0.26354728     0.00895640
H      -0.58140979    -0.94561633     0.71923069
H      -1.65993136     1.93610059     2.33900570
H      -2.48278454     1.67559645     0.80541559
H      -2.15208696     0.29251086     1.86697147
C      -6.20576298     1.38096897     2.41546910
C      -4.87283849     1.49992941     3.09679930
O      -5.01212461     1.71466292     4.42869497
O      -3.79644960     1.42090691     2.56603241
H      -4.11739380     1.78023378     4.79818075
H      -6.77239222     0.55736428     2.85249424
H      -6.78383116     2.29299583     2.57175487
H      -6.05741679     1.21011552     1.35324024
17 
# or4: geometry number 31. C1-O13 distance: 2.25 
C      -1.76385548     1.24451357     1.50421955
C      -0.42393585     1.12823217     0.80425496
N      -0.02065181    -0.14052012     0.50912340
O       0.24289828     2.10279409     0.51633022
H       0.84403881    -0.26354728     0.00895640
H      -0.58140979    -0.94561633     0.71923069
H      -1.65993136     1.93610059     2.33900570
H      -2.48278454     1.67559645     0.80541559
H      -2.15208696     0.29251086     1.86697147
C      -6.16157615     1.37713433     2.39238621
C      -4.82865166     1.49609477     3.07371641
O      -4.96793778     1.71082828     4.40561208
O      -3.75226277     1.41707227     2.54294952
H      -4.07320697     1.77639914     4.77509786
H      -6.72820539     0.55352964     2.82941135
H      -6.73964433     2.28916119     2.54867198
H      -6.01322996     1.20628088     1.33015735
17 
# or4: geometry number 32. C1-O13 distance: 2.2 
C      -1.76385548     1.24451357     1.50421955
C      -0.42393585     1.12823217     0.80425496
N      -0.02065181    -0.14052012     0.50912340
O       0.24289828     2.10279409     0.51633022
H       0.84403881    -0.26354728     0.00895640
H      -0.58140979    -0.94561633     0.71923069
H      -1.65993136     1.93610059     2.33900570
H      -2.48278454     1.67559645     0.80541559
H      -2.15208696     0.29251086     1.86697147
C      -6.11738932     1.37329969     2.36930333
C      -4.78446483     1.49226013     3.05063353
O      -4.92375095     1.70699364     4.38252920
O      -3.70807594     1.41323763     2.51986664
H      -4.02902014     1.77256450     4.75201498
H      -6.68401856     0.54969500     2.80632847
H      -6.69545750     2.28532655     2.52558910
H      -5.96904313     1.20244624     1.30707447
