17 
# or5: geometry number 1. C1-H14 distance: 10 
C      -1.83531401     1.19509955     1.40720651
C      -0.48557846     1.14388134     0.71840535
N       0.12727236    -0.07424681     0.71128391
O       0.01337914     2.12248958     0.19811065
H       1.00693293    -0.16446571     0.23060688
H      -0.29429404    -0.89069733     1.11435315
H      -1.85911309     2.06749482     2.05860566
H      -2.60666814     1.32917438     0.64690711
H      -2.06433539     0.30133419     1.98802875
C     -12.72429763     1.56015053     8.45007409
C     -11.42376065     1.48990727     7.70259864
O     -11.61380597     1.58553018     6.36312254
O     -10.33180618     1.36524246     8.19113239
H     -10.73742009     1.53290644     5.95015641
H     -13.22855233     2.50170519     8.22739411
H     -13.38238268     0.75326783     8.12412096
H     -12.53565367     1.48056927     9.51666113
17 
# or5: geometry number 2. C1-H14 distance: 9 
C      -1.83531401     1.19509955     1.40720651
C      -0.48557846     1.14388134     0.71840535
N       0.12727236    -0.07424681     0.71128391
O       0.01337914     2.12248958     0.19811065
H       1.00693293    -0.16446571     0.23060688
H      -0.29429404    -0.89069733     1.11435315
H      -1.85911309     2.06749482     2.05860566
H      -2.60666814     1.32917438     0.64690711
H      -2.06433539     0.30133419     1.98802875
C     -11.83408702     1.52636985     7.99577910
C     -10.53355004     1.45612659     7.24830365
O     -10.72359536     1.55174950     5.90882755
O      -9.44159557     1.33146178     7.73683740
H      -9.84720948     1.49912576     5.49586142
H     -12.33834172     2.46792451     7.77309912
H     -12.49217207     0.71948715     7.66982597
H     -11.64544306     1.44678859     9.06236614
17 
# or5: geometry number 3. C1-H14 distance: 8 
C      -1.83531401     1.19509955     1.40720651
C      -0.48557846     1.14388134     0.71840535
N       0.12727236    -0.07424681     0.71128391
O       0.01337914     2.12248958     0.19811065
H       1.00693293    -0.16446571     0.23060688
H      -0.29429404    -0.89069733     1.11435315
H      -1.85911309     2.06749482     2.05860566
H      -2.60666814     1.32917438     0.64690711
H      -2.06433539     0.30133419     1.98802875
C     -10.94387642     1.49258916     7.54148411
C      -9.64333944     1.42234590     6.79400866
O      -9.83338476     1.51796881     5.45453256
O      -8.55138497     1.29768109     7.28254241
H      -8.95699888     1.46534507     5.04156643
H     -11.44813112     2.43414382     7.31880413
H     -11.60196147     0.68570646     7.21553098
H     -10.75523246     1.41300790     8.60807115
17 
# or5: geometry number 4. C1-H14 distance: 7 
C      -1.83531401     1.19509955     1.40720651
C      -0.48557846     1.14388134     0.71840535
N       0.12727236    -0.07424681     0.71128391
O       0.01337914     2.12248958     0.19811065
H       1.00693293    -0.16446571     0.23060688
H      -0.29429404    -0.89069733     1.11435315
H      -1.85911309     2.06749482     2.05860566
H      -2.60666814     1.32917438     0.64690711
H      -2.06433539     0.30133419     1.98802875
C     -10.05366581     1.45880847     7.08718912
C      -8.75312883     1.38856521     6.33971367
O      -8.94317415     1.48418812     5.00023757
O      -7.66117436     1.26390040     6.82824742
H      -8.06678827     1.43156438     4.58727144
H     -10.55792051     2.40036313     6.86450914
H     -10.71175086     0.65192577     6.76123599
H      -9.86502185     1.37922721     8.15377616
17 
# or5: geometry number 5. C1-H14 distance: 6 
C      -1.83531401     1.19509955     1.40720651
C      -0.48557846     1.14388134     0.71840535
N       0.12727236    -0.07424681     0.71128391
O       0.01337914     2.12248958     0.19811065
H       1.00693293    -0.16446571     0.23060688
H      -0.29429404    -0.89069733     1.11435315
H      -1.85911309     2.06749482     2.05860566
H      -2.60666814     1.32917438     0.64690711
H      -2.06433539     0.30133419     1.98802875
C      -9.16345520     1.42502778     6.63289413
C      -7.86291822     1.35478452     5.88541868
O      -8.05296354     1.45040743     4.54594258
O      -6.77096375     1.23011971     6.37395243
H      -7.17657766     1.39778369     4.13297645
H      -9.66770990     2.36658244     6.41021415
H      -9.82154025     0.61814508     6.30694100
H      -8.97481124     1.34544652     7.69948117
17 
# or5: geometry number 6. C1-H14 distance: 5 
C      -1.83531401     1.19509955     1.40720651
C      -0.48557846     1.14388134     0.71840535
N       0.12727236    -0.07424681     0.71128391
O       0.01337914     2.12248958     0.19811065
H       1.00693293    -0.16446571     0.23060688
H      -0.29429404    -0.89069733     1.11435315
H      -1.85911309     2.06749482     2.05860566
H      -2.60666814     1.32917438     0.64690711
H      -2.06433539     0.30133419     1.98802875
C      -8.27324459     1.39124709     6.17859914
C      -6.97270761     1.32100383     5.43112369
O      -7.16275293     1.41662674     4.09164759
O      -5.88075314     1.19633902     5.91965744
H      -6.28636705     1.36400300     3.67868146
H      -8.77749929     2.33280175     5.95591916
H      -8.93132964     0.58436439     5.85264601
H      -8.08460063     1.31166583     7.24518618
17 
# or5: geometry number 7. C1-H14 distance: 4.5 
C      -1.83531401     1.19509955     1.40720651
C      -0.48557846     1.14388134     0.71840535
N       0.12727236    -0.07424681     0.71128391
O       0.01337914     2.12248958     0.19811065
H       1.00693293    -0.16446571     0.23060688
H      -0.29429404    -0.89069733     1.11435315
H      -1.85911309     2.06749482     2.05860566
H      -2.60666814     1.32917438     0.64690711
H      -2.06433539     0.30133419     1.98802875
C      -7.82813929     1.37435674     5.95145165
C      -6.52760231     1.30411348     5.20397620
O      -6.71764763     1.39973639     3.86450010
O      -5.43564784     1.17944867     5.69250995
H      -5.84126175     1.34711265     3.45153397
H      -8.33239399     2.31591140     5.72877167
H      -8.48622434     0.56747404     5.62549852
H      -7.63949533     1.29477548     7.01803869
17 
# or5: geometry number 8. C1-H14 distance: 4 
C      -1.83531401     1.19509955     1.40720651
C      -0.48557846     1.14388134     0.71840535
N       0.12727236    -0.07424681     0.71128391
O       0.01337914     2.12248958     0.19811065
H       1.00693293    -0.16446571     0.23060688
H      -0.29429404    -0.89069733     1.11435315
H      -1.85911309     2.06749482     2.05860566
H      -2.60666814     1.32917438     0.64690711
H      -2.06433539     0.30133419     1.98802875
C      -7.38303398     1.35746640     5.72430415
C      -6.08249700     1.28722314     4.97682870
O      -6.27254232     1.38284605     3.63735260
O      -4.99054253     1.16255833     5.46536245
H      -5.39615644     1.33022231     3.22438647
H      -7.88728868     2.29902106     5.50162417
H      -8.04111903     0.55058370     5.39835102
H      -7.19439002     1.27788514     6.79089119
17 
# or5: geometry number 9. C1-H14 distance: 3.7 
C      -1.83531401     1.19509955     1.40720651
C      -0.48557846     1.14388134     0.71840535
N       0.12727236    -0.07424681     0.71128391
O       0.01337914     2.12248958     0.19811065
H       1.00693293    -0.16446571     0.23060688
H      -0.29429404    -0.89069733     1.11435315
H      -1.85911309     2.06749482     2.05860566
H      -2.60666814     1.32917438     0.64690711
H      -2.06433539     0.30133419     1.98802875
C      -7.11597080     1.34733219     5.58801565
C      -5.81543382     1.27708893     4.84054020
O      -6.00547914     1.37271184     3.50106410
O      -4.72347935     1.15242412     5.32907395
H      -5.12909326     1.32008810     3.08809797
H      -7.62022550     2.28888685     5.36533567
H      -7.77405585     0.54044949     5.26206252
H      -6.92732684     1.26775093     6.65460269
17 
# or5: geometry number 10. C1-H14 distance: 3.4 
C      -1.83531401     1.19509955     1.40720651
C      -0.48557846     1.14388134     0.71840535
N       0.12727236    -0.07424681     0.71128391
O       0.01337914     2.12248958     0.19811065
H       1.00693293    -0.16446571     0.23060688
H      -0.29429404    -0.89069733     1.11435315
H      -1.85911309     2.06749482     2.05860566
H      -2.60666814     1.32917438     0.64690711
H      -2.06433539     0.30133419     1.98802875
C      -6.84890762     1.33719798     5.45172716
C      -5.54837064     1.26695472     4.70425171
O      -5.73841596     1.36257763     3.36477561
O      -4.45641617     1.14228991     5.19278546
H      -4.86203008     1.30995389     2.95180948
H      -7.35316232     2.27875264     5.22904718
H      -7.50699267     0.53031528     5.12577403
H      -6.66026366     1.25761672     6.51831420
17 
# or5: geometry number 11. C1-H14 distance: 3.1 
C      -1.83531401     1.19509955     1.40720651
C      -0.48557846     1.14388134     0.71840535
N       0.12727236    -0.07424681     0.71128391
O       0.01337914     2.12248958     0.19811065
H       1.00693293    -0.16446571     0.23060688
H      -0.29429404    -0.89069733     1.11435315
H      -1.85911309     2.06749482     2.05860566
H      -2.60666814     1.32917438     0.64690711
H      -2.06433539     0.30133419     1.98802875
C      -6.58184444     1.32706378     5.31543866
C      -5.28130746     1.25682052     4.56796321
O      -5.47135278     1.35244343     3.22848711
O      -4.18935299     1.13215571     5.05649696
H      -4.59496690     1.29981969     2.81552098
H      -7.08609914     2.26861844     5.09275868
H      -7.23992949     0.52018108     4.98948553
H      -6.39320048     1.24748252     6.38202570
17 
# or5: geometry number 12. C1-H14 distance: 2.9 
C      -1.83531401     1.19509955     1.40720651
C      -0.48557846     1.14388134     0.71840535
N       0.12727236    -0.07424681     0.71128391
O       0.01337914     2.12248958     0.19811065
H       1.00693293    -0.16446571     0.23060688
H      -0.29429404    -0.89069733     1.11435315
H      -1.85911309     2.06749482     2.05860566
H      -2.60666814     1.32917438     0.64690711
H      -2.06433539     0.30133419     1.98802875
C      -6.40380231     1.32030764     5.22457966
C      -5.10326533     1.25006438     4.47710421
O      -5.29331065     1.34568729     3.13762811
O      -4.01131086     1.12539957     4.96563796
H      -4.41692477     1.29306355     2.72466198
H      -6.90805701     2.26186230     5.00189968
H      -7.06188736     0.51342494     4.89862653
H      -6.21515835     1.24072638     6.29116670
17 
# or5: geometry number 13. C1-H14 distance: 2.7 
C      -1.83531401     1.19509955     1.40720651
C      -0.48557846     1.14388134     0.71840535
N       0.12727236    -0.07424681     0.71128391
O       0.01337914     2.12248958     0.19811065
H       1.00693293    -0.16446571     0.23060688
H      -0.29429404    -0.89069733     1.11435315
H      -1.85911309     2.06749482     2.05860566
H      -2.60666814     1.32917438     0.64690711
H      -2.06433539     0.30133419     1.98802875
C      -6.22576019     1.31355150     5.13372066
C      -4.92522321     1.24330824     4.38624521
O      -5.11526853     1.33893115     3.04676911
O      -3.83326874     1.11864343     4.87477896
H      -4.23888265     1.28630741     2.63380298
H      -6.73001489     2.25510616     4.91104068
H      -6.88384524     0.50666880     4.80776753
H      -6.03711623     1.23397024     6.20030770
17 
# or5: geometry number 14. C1-H14 distance: 2.5 
C      -1.83531401     1.19509955     1.40720651
C      -0.48557846     1.14388134     0.71840535
N       0.12727236    -0.07424681     0.71128391
O       0.01337914     2.12248958     0.19811065
H       1.00693293    -0.16446571     0.23060688
H      -0.29429404    -0.89069733     1.11435315
H      -1.85911309     2.06749482     2.05860566
H      -2.60666814     1.32917438     0.64690711
H      -2.06433539     0.30133419     1.98802875
C      -6.04771807     1.30679536     5.04286167
C      -4.74718109     1.23655210     4.29538622
O      -4.93722641     1.33217501     2.95591012
O      -3.65522662     1.11188729     4.78391997
H      -4.06084053     1.27955127     2.54294399
H      -6.55197277     2.24835002     4.82018169
H      -6.70580312     0.49991266     4.71690854
H      -5.85907411     1.22721410     6.10944871
17 
# or5: geometry number 15. C1-H14 distance: 2.4 
C      -1.83531401     1.19509955     1.40720651
C      -0.48557846     1.14388134     0.71840535
N       0.12727236    -0.07424681     0.71128391
O       0.01337914     2.12248958     0.19811065
H       1.00693293    -0.16446571     0.23060688
H      -0.29429404    -0.89069733     1.11435315
H      -1.85911309     2.06749482     2.05860566
H      -2.60666814     1.32917438     0.64690711
H      -2.06433539     0.30133419     1.98802875
C      -5.95869701     1.30341729     4.99743217
C      -4.65816003     1.23317403     4.24995672
O      -4.84820535     1.32879694     2.91048062
O      -3.56620556     1.10850922     4.73849047
H      -3.97181947     1.27617320     2.49751449
H      -6.46295171     2.24497195     4.77475219
H      -6.61678206     0.49653459     4.67147904
H      -5.77005305     1.22383603     6.06401921
17 
# or5: geometry number 16. C1-H14 distance: 2.3 
C      -1.83531401     1.19509955     1.40720651
C      -0.48557846     1.14388134     0.71840535
N       0.12727236    -0.07424681     0.71128391
O       0.01337914     2.12248958     0.19811065
H       1.00693293    -0.16446571     0.23060688
H      -0.29429404    -0.89069733     1.11435315
H      -1.85911309     2.06749482     2.05860566
H      -2.60666814     1.32917438     0.64690711
H      -2.06433539     0.30133419     1.98802875
C      -5.86967595     1.30003923     4.95200267
C      -4.56913897     1.22979597     4.20452722
O      -4.75918429     1.32541888     2.86505112
O      -3.47718450     1.10513116     4.69306097
H      -3.88279841     1.27279514     2.45208499
H      -6.37393065     2.24159389     4.72932269
H      -6.52776100     0.49315653     4.62604954
H      -5.68103199     1.22045797     6.01858971
17 
# or5: geometry number 17. C1-H14 distance: 2.2 
C      -1.83531401     1.19509955     1.40720651
C      -0.48557846     1.14388134     0.71840535
N       0.12727236    -0.07424681     0.71128391
O       0.01337914     2.12248958     0.19811065
H       1.00693293    -0.16446571     0.23060688
H      -0.29429404    -0.89069733     1.11435315
H      -1.85911309     2.06749482     2.05860566
H      -2.60666814     1.32917438     0.64690711
H      -2.06433539     0.30133419     1.98802875
C      -5.78065489     1.29666116     4.90657317
C      -4.48011791     1.22641790     4.15909772
O      -4.67016323     1.32204081     2.81962162
O      -3.38816344     1.10175309     4.64763147
H      -3.79377735     1.26941707     2.40665549
H      -6.28490959     2.23821582     4.68389319
H      -6.43873994     0.48977846     4.58062004
H      -5.59201093     1.21707990     5.97316021
17 
# or5: geometry number 18. C1-H14 distance: 2.1 
C      -1.83531401     1.19509955     1.40720651
C      -0.48557846     1.14388134     0.71840535
N       0.12727236    -0.07424681     0.71128391
O       0.01337914     2.12248958     0.19811065
H       1.00693293    -0.16446571     0.23060688
H      -0.29429404    -0.89069733     1.11435315
H      -1.85911309     2.06749482     2.05860566
H      -2.60666814     1.32917438     0.64690711
H      -2.06433539     0.30133419     1.98802875
C      -5.69163383     1.29328309     4.86114367
C      -4.39109685     1.22303983     4.11366822
O      -4.58114217     1.31866274     2.77419212
O      -3.29914238     1.09837502     4.60220197
H      -3.70475629     1.26603900     2.36122599
H      -6.19588853     2.23483775     4.63846369
H      -6.34971888     0.48640039     4.53519054
H      -5.50298987     1.21370183     5.92773071
17 
# or5: geometry number 19. C1-H14 distance: 2.0 
C      -1.83531401     1.19509955     1.40720651
C      -0.48557846     1.14388134     0.71840535
N       0.12727236    -0.07424681     0.71128391
O       0.01337914     2.12248958     0.19811065
H       1.00693293    -0.16446571     0.23060688
H      -0.29429404    -0.89069733     1.11435315
H      -1.85911309     2.06749482     2.05860566
H      -2.60666814     1.32917438     0.64690711
H      -2.06433539     0.30133419     1.98802875
C      -5.60261277     1.28990502     4.81571417
C      -4.30207579     1.21966176     4.06823872
O      -4.49212111     1.31528467     2.72876262
O      -3.21012132     1.09499695     4.55677247
H      -3.61573523     1.26266093     2.31579649
H      -6.10686747     2.23145968     4.59303419
H      -6.26069782     0.48302232     4.48976104
H      -5.41396881     1.21032376     5.88230121
17 
# or5: geometry number 20. C1-H14 distance: 1.9 
C      -1.83531401     1.19509955     1.40720651
C      -0.48557846     1.14388134     0.71840535
N       0.12727236    -0.07424681     0.71128391
O       0.01337914     2.12248958     0.19811065
H       1.00693293    -0.16446571     0.23060688
H      -0.29429404    -0.89069733     1.11435315
H      -1.85911309     2.06749482     2.05860566
H      -2.60666814     1.32917438     0.64690711
H      -2.06433539     0.30133419     1.98802875
C      -5.51359171     1.28652695     4.77028467
C      -4.21305473     1.21628369     4.02280922
O      -4.40310005     1.31190660     2.68333312
O      -3.12110026     1.09161888     4.51134297
H      -3.52671417     1.25928286     2.27036699
H      -6.01784641     2.22808161     4.54760469
H      -6.17167676     0.47964425     4.44433154
H      -5.32494775     1.20694569     5.83687171
17 
# or5: geometry number 21. C1-H14 distance: 1.85 
C      -1.83531401     1.19509955     1.40720651
C      -0.48557846     1.14388134     0.71840535
N       0.12727236    -0.07424681     0.71128391
O       0.01337914     2.12248958     0.19811065
H       1.00693293    -0.16446571     0.23060688
H      -0.29429404    -0.89069733     1.11435315
H      -1.85911309     2.06749482     2.05860566
H      -2.60666814     1.32917438     0.64690711
H      -2.06433539     0.30133419     1.98802875
C      -5.46908118     1.28483792     4.74756992
C      -4.16854420     1.21459466     4.00009447
O      -4.35858952     1.31021757     2.66061837
O      -3.07658973     1.08992985     4.48862822
H      -3.48220364     1.25759383     2.24765224
H      -5.97333588     2.22639258     4.52488994
H      -6.12716623     0.47795522     4.42161679
H      -5.28043722     1.20525666     5.81415696
17 
# or5: geometry number 22. C1-H14 distance: 1.8 
C      -1.83531401     1.19509955     1.40720651
C      -0.48557846     1.14388134     0.71840535
N       0.12727236    -0.07424681     0.71128391
O       0.01337914     2.12248958     0.19811065
H       1.00693293    -0.16446571     0.23060688
H      -0.29429404    -0.89069733     1.11435315
H      -1.85911309     2.06749482     2.05860566
H      -2.60666814     1.32917438     0.64690711
H      -2.06433539     0.30133419     1.98802875
C      -5.42457064     1.28314888     4.72485517
C      -4.12403366     1.21290562     3.97737972
O      -4.31407898     1.30852853     2.63790362
O      -3.03207919     1.08824081     4.46591347
H      -3.43769310     1.25590479     2.22493749
H      -5.92882534     2.22470354     4.50217519
H      -6.08265569     0.47626618     4.39890204
H      -5.23592668     1.20356762     5.79144221
17 
# or5: geometry number 23. C1-H14 distance: 1.75 
C      -1.83531401     1.19509955     1.40720651
C      -0.48557846     1.14388134     0.71840535
N       0.12727236    -0.07424681     0.71128391
O       0.01337914     2.12248958     0.19811065
H       1.00693293    -0.16446571     0.23060688
H      -0.29429404    -0.89069733     1.11435315
H      -1.85911309     2.06749482     2.05860566
H      -2.60666814     1.32917438     0.64690711
H      -2.06433539     0.30133419     1.98802875
C      -5.38006011     1.28145985     4.70214042
C      -4.07952313     1.21121659     3.95466497
O      -4.26956845     1.30683950     2.61518887
O      -2.98756866     1.08655178     4.44319872
H      -3.39318257     1.25421576     2.20222274
H      -5.88431481     2.22301451     4.47946044
H      -6.03814516     0.47457715     4.37618729
H      -5.19141615     1.20187859     5.76872746
17 
# or5: geometry number 24. C1-H14 distance: 1.7 
C      -1.83531401     1.19509955     1.40720651
C      -0.48557846     1.14388134     0.71840535
N       0.12727236    -0.07424681     0.71128391
O       0.01337914     2.12248958     0.19811065
H       1.00693293    -0.16446571     0.23060688
H      -0.29429404    -0.89069733     1.11435315
H      -1.85911309     2.06749482     2.05860566
H      -2.60666814     1.32917438     0.64690711
H      -2.06433539     0.30133419     1.98802875
C      -5.33554958     1.27977081     4.67942567
C      -4.03501260     1.20952755     3.93195022
O      -4.22505792     1.30515046     2.59247412
O      -2.94305813     1.08486274     4.42048397
H      -3.34867204     1.25252672     2.17950799
H      -5.83980428     2.22132547     4.45674569
H      -5.99363463     0.47288811     4.35347254
H      -5.14690562     1.20018955     5.74601271
17 
# or5: geometry number 25. C1-H14 distance: 1.65 
C      -1.83531401     1.19509955     1.40720651
C      -0.48557846     1.14388134     0.71840535
N       0.12727236    -0.07424681     0.71128391
O       0.01337914     2.12248958     0.19811065
H       1.00693293    -0.16446571     0.23060688
H      -0.29429404    -0.89069733     1.11435315
H      -1.85911309     2.06749482     2.05860566
H      -2.60666814     1.32917438     0.64690711
H      -2.06433539     0.30133419     1.98802875
C      -5.29103905     1.27808178     4.65671092
C      -3.99050207     1.20783852     3.90923547
O      -4.18054739     1.30346143     2.56975937
O      -2.89854760     1.08317371     4.39776922
H      -3.30416151     1.25083769     2.15679324
H      -5.79529375     2.21963644     4.43403094
H      -5.94912410     0.47119908     4.33075779
H      -5.10239509     1.19850052     5.72329796
17 
# or5: geometry number 26. C1-H14 distance: 1.6 
C      -1.83531401     1.19509955     1.40720651
C      -0.48557846     1.14388134     0.71840535
N       0.12727236    -0.07424681     0.71128391
O       0.01337914     2.12248958     0.19811065
H       1.00693293    -0.16446571     0.23060688
H      -0.29429404    -0.89069733     1.11435315
H      -1.85911309     2.06749482     2.05860566
H      -2.60666814     1.32917438     0.64690711
H      -2.06433539     0.30133419     1.98802875
C      -5.24652852     1.27639274     4.63399617
C      -3.94599154     1.20614948     3.88652072
O      -4.13603686     1.30177239     2.54704462
O      -2.85403707     1.08148467     4.37505447
H      -3.25965098     1.24914865     2.13407849
H      -5.75078322     2.21794740     4.41131619
H      -5.90461357     0.46951004     4.30804304
H      -5.05788456     1.19681148     5.70058321
17 
# or5: geometry number 27. C1-H14 distance: 1.55 
C      -1.83531401     1.19509955     1.40720651
C      -0.48557846     1.14388134     0.71840535
N       0.12727236    -0.07424681     0.71128391
O       0.01337914     2.12248958     0.19811065
H       1.00693293    -0.16446571     0.23060688
H      -0.29429404    -0.89069733     1.11435315
H      -1.85911309     2.06749482     2.05860566
H      -2.60666814     1.32917438     0.64690711
H      -2.06433539     0.30133419     1.98802875
C      -5.20201799     1.27470371     4.61128142
C      -3.90148101     1.20446045     3.86380597
O      -4.09152633     1.30008336     2.52432987
O      -2.80952654     1.07979564     4.35233972
H      -3.21514045     1.24745962     2.11136374
H      -5.70627269     2.21625837     4.38860144
H      -5.86010304     0.46782101     4.28532829
H      -5.01337403     1.19512245     5.67786846
17 
# or5: geometry number 28. C1-H14 distance: 1.5 
C      -1.83531401     1.19509955     1.40720651
C      -0.48557846     1.14388134     0.71840535
N       0.12727236    -0.07424681     0.71128391
O       0.01337914     2.12248958     0.19811065
H       1.00693293    -0.16446571     0.23060688
H      -0.29429404    -0.89069733     1.11435315
H      -1.85911309     2.06749482     2.05860566
H      -2.60666814     1.32917438     0.64690711
H      -2.06433539     0.30133419     1.98802875
C      -5.15750746     1.27301467     4.58856668
C      -3.85697048     1.20277141     3.84109123
O      -4.04701580     1.29839432     2.50161513
O      -2.76501601     1.07810660     4.32962498
H      -3.17062992     1.24577058     2.08864900
H      -5.66176216     2.21456933     4.36588670
H      -5.81559251     0.46613197     4.26261355
H      -4.96886350     1.19343341     5.65515372
17 
# or5: geometry number 29. C1-H14 distance: 1.45 
C      -1.83531401     1.19509955     1.40720651
C      -0.48557846     1.14388134     0.71840535
N       0.12727236    -0.07424681     0.71128391
O       0.01337914     2.12248958     0.19811065
H       1.00693293    -0.16446571     0.23060688
H      -0.29429404    -0.89069733     1.11435315
H      -1.85911309     2.06749482     2.05860566
H      -2.60666814     1.32917438     0.64690711
H      -2.06433539     0.30133419     1.98802875
C      -5.11299693     1.27132564     4.56585193
C      -3.81245995     1.20108238     3.81837648
O      -4.00250527     1.29670529     2.47890038
O      -2.72050548     1.07641757     4.30691023
H      -3.12611939     1.24408155     2.06593425
H      -5.61725163     2.21288030     4.34317195
H      -5.77108198     0.46444294     4.23989880
H      -4.92435297     1.19174438     5.63243897
