17 
# or7: geometry number 1. C2-C10 distance: 10 
C       1.13445773     2.84048054     1.23301088
C      -0.08611526     2.04480437     1.65248364
N       0.08184456     0.69274135     1.70894746
O      -1.14268774     2.57789029     1.92963578
H      -0.69013331     0.12733482     2.02097019
H       0.96033324     0.25114976     1.50887499
H       0.83125793     3.57178034     0.48519324
H       1.50458106     3.38911939     2.10077962
H       1.94161028     2.22572483     0.83400966
C      -3.00691511     1.26572157    -7.87967027
C      -3.44552649     1.14872808    -9.31109706
O      -2.61479873     1.82494132   -10.14301306
O      -4.40438343     0.54263586    -9.71086787
H      -2.95834054     1.70478060   -11.04240337
H      -1.99474922     0.87353658    -7.76969079
H      -2.98309373     2.31586594    -7.58469497
H      -3.69243835     0.71427887    -7.24288421
17 
# or7: geometry number 2. C2-C10 distance: 9 
C       1.13445773     2.84048054     1.23301088
C      -0.08611526     2.04480437     1.65248364
N       0.08184456     0.69274135     1.70894746
O      -1.14268774     2.57789029     1.92963578
H      -0.69013331     0.12733482     2.02097019
H       0.96033324     0.25114976     1.50887499
H       0.83125793     3.57178034     0.48519324
H       1.50458106     3.38911939     2.10077962
H       1.94161028     2.22572483     0.83400966
C      -2.71483513     1.34362985    -6.92645488
C      -3.15344651     1.22663636    -8.35788167
O      -2.32271875     1.90284960    -9.18979767
O      -4.11230345     0.62054414    -8.75765248
H      -2.66626056     1.78268888   -10.08918798
H      -1.70266924     0.95144486    -6.81647540
H      -2.69101375     2.39377422    -6.63147958
H      -3.40035837     0.79218715    -6.28966882
17 
# or7: geometry number 3. C2-C10 distance: 8 
C       1.13445773     2.84048054     1.23301088
C      -0.08611526     2.04480437     1.65248364
N       0.08184456     0.69274135     1.70894746
O      -1.14268774     2.57789029     1.92963578
H      -0.69013331     0.12733482     2.02097019
H       0.96033324     0.25114976     1.50887499
H       0.83125793     3.57178034     0.48519324
H       1.50458106     3.38911939     2.10077962
H       1.94161028     2.22572483     0.83400966
C      -2.42275514     1.42153813    -5.97323949
C      -2.86136652     1.30454464    -7.40466628
O      -2.03063876     1.98075788    -8.23658228
O      -3.82022346     0.69845242    -7.80443709
H      -2.37418057     1.86059716    -9.13597259
H      -1.41058925     1.02935314    -5.86326001
H      -2.39893376     2.47168250    -5.67826419
H      -3.10827838     0.87009543    -5.33645343
17 
# or7: geometry number 4. C2-C10 distance: 7 
C       1.13445773     2.84048054     1.23301088
C      -0.08611526     2.04480437     1.65248364
N       0.08184456     0.69274135     1.70894746
O      -1.14268774     2.57789029     1.92963578
H      -0.69013331     0.12733482     2.02097019
H       0.96033324     0.25114976     1.50887499
H       0.83125793     3.57178034     0.48519324
H       1.50458106     3.38911939     2.10077962
H       1.94161028     2.22572483     0.83400966
C      -2.13067516     1.49944641    -5.02002410
C      -2.56928654     1.38245292    -6.45145089
O      -1.73855878     2.05866616    -7.28336689
O      -3.52814348     0.77636070    -6.85122170
H      -2.08210059     1.93850544    -8.18275720
H      -1.11850927     1.10726142    -4.91004462
H      -2.10685378     2.54959078    -4.72504880
H      -2.81619840     0.94800371    -4.38323804
17 
# or7: geometry number 5. C2-C10 distance: 6 
C       1.13445773     2.84048054     1.23301088
C      -0.08611526     2.04480437     1.65248364
N       0.08184456     0.69274135     1.70894746
O      -1.14268774     2.57789029     1.92963578
H      -0.69013331     0.12733482     2.02097019
H       0.96033324     0.25114976     1.50887499
H       0.83125793     3.57178034     0.48519324
H       1.50458106     3.38911939     2.10077962
H       1.94161028     2.22572483     0.83400966
C      -1.83859517     1.57735469    -4.06680871
C      -2.27720655     1.46036120    -5.49823550
O      -1.44647879     2.13657444    -6.33015150
O      -3.23606349     0.85426898    -5.89800631
H      -1.79002060     2.01641372    -7.22954181
H      -0.82642928     1.18516970    -3.95682923
H      -1.81477379     2.62749906    -3.77183341
H      -2.52411841     1.02591199    -3.43002265
17 
# or7: geometry number 6. C2-C10 distance: 5 
C       1.13445773     2.84048054     1.23301088
C      -0.08611526     2.04480437     1.65248364
N       0.08184456     0.69274135     1.70894746
O      -1.14268774     2.57789029     1.92963578
H      -0.69013331     0.12733482     2.02097019
H       0.96033324     0.25114976     1.50887499
H       0.83125793     3.57178034     0.48519324
H       1.50458106     3.38911939     2.10077962
H       1.94161028     2.22572483     0.83400966
C      -1.54651519     1.65526297    -3.11359332
C      -1.98512657     1.53826948    -4.54502011
O      -1.15439881     2.21448272    -5.37693611
O      -2.94398351     0.93217726    -4.94479092
H      -1.49794062     2.09432200    -6.27632642
H      -0.53434930     1.26307798    -3.00361384
H      -1.52269381     2.70540734    -2.81861802
H      -2.23203843     1.10382027    -2.47680726
17 
# or7: geometry number 7. C2-C10 distance: 4.7 
C       1.13445773     2.84048054     1.23301088
C      -0.08611526     2.04480437     1.65248364
N       0.08184456     0.69274135     1.70894746
O      -1.14268774     2.57789029     1.92963578
H      -0.69013331     0.12733482     2.02097019
H       0.96033324     0.25114976     1.50887499
H       0.83125793     3.57178034     0.48519324
H       1.50458106     3.38911939     2.10077962
H       1.94161028     2.22572483     0.83400966
C      -1.45889119     1.67863545    -2.82762870
C      -1.89750257     1.56164196    -4.25905549
O      -1.06677481     2.23785520    -5.09097149
O      -2.85635951     0.95554974    -4.65882630
H      -1.41031662     2.11769448    -5.99036180
H      -0.44672530     1.28645046    -2.71764922
H      -1.43506981     2.72877982    -2.53265340
H      -2.14441443     1.12719275    -2.19084264
17 
# or7: geometry number 8. C2-C10 distance: 4.4 
C       1.13445773     2.84048054     1.23301088
C      -0.08611526     2.04480437     1.65248364
N       0.08184456     0.69274135     1.70894746
O      -1.14268774     2.57789029     1.92963578
H      -0.69013331     0.12733482     2.02097019
H       0.96033324     0.25114976     1.50887499
H       0.83125793     3.57178034     0.48519324
H       1.50458106     3.38911939     2.10077962
H       1.94161028     2.22572483     0.83400966
C      -1.37126720     1.70200794    -2.54166408
C      -1.80987858     1.58501445    -3.97309087
O      -0.97915082     2.26122769    -4.80500687
O      -2.76873552     0.97892223    -4.37286168
H      -1.32269263     2.14106697    -5.70439718
H      -0.35910131     1.30982295    -2.43168460
H      -1.34744582     2.75215231    -2.24668878
H      -2.05679044     1.15056524    -1.90487802
17 
# or7: geometry number 9. C2-C10 distance: 4.2 
C       1.13445773     2.84048054     1.23301088
C      -0.08611526     2.04480437     1.65248364
N       0.08184456     0.69274135     1.70894746
O      -1.14268774     2.57789029     1.92963578
H      -0.69013331     0.12733482     2.02097019
H       0.96033324     0.25114976     1.50887499
H       0.83125793     3.57178034     0.48519324
H       1.50458106     3.38911939     2.10077962
H       1.94161028     2.22572483     0.83400966
C      -1.31285120     1.71758959    -2.35102100
C      -1.75146258     1.60059610    -3.78244779
O      -0.92073482     2.27680934    -4.61436379
O      -2.71031952     0.99450388    -4.18221860
H      -1.26427663     2.15664862    -5.51375410
H      -0.30068531     1.32540460    -2.24104152
H      -1.28902982     2.76773396    -2.05604570
H      -1.99837444     1.16614689    -1.71423494
17 
# or7: geometry number 10. C2-C10 distance: 4 
C       1.13445773     2.84048054     1.23301088
C      -0.08611526     2.04480437     1.65248364
N       0.08184456     0.69274135     1.70894746
O      -1.14268774     2.57789029     1.92963578
H      -0.69013331     0.12733482     2.02097019
H       0.96033324     0.25114976     1.50887499
H       0.83125793     3.57178034     0.48519324
H       1.50458106     3.38911939     2.10077962
H       1.94161028     2.22572483     0.83400966
C      -1.25443520     1.73317125    -2.16037792
C      -1.69304658     1.61617776    -3.59180471
O      -0.86231882     2.29239100    -4.42372071
O      -2.65190352     1.01008554    -3.99157552
H      -1.20586063     2.17223028    -5.32311102
H      -0.24226931     1.34098626    -2.05039844
H      -1.23061382     2.78331562    -1.86540262
H      -1.93995844     1.18172855    -1.52359186
17 
# or7: geometry number 11. C2-C10 distance: 3.8 
C       1.13445773     2.84048054     1.23301088
C      -0.08611526     2.04480437     1.65248364
N       0.08184456     0.69274135     1.70894746
O      -1.14268774     2.57789029     1.92963578
H      -0.69013331     0.12733482     2.02097019
H       0.96033324     0.25114976     1.50887499
H       0.83125793     3.57178034     0.48519324
H       1.50458106     3.38911939     2.10077962
H       1.94161028     2.22572483     0.83400966
C      -1.19601920     1.74875291    -1.96973485
C      -1.63463058     1.63175942    -3.40116164
O      -0.80390282     2.30797266    -4.23307764
O      -2.59348752     1.02566720    -3.80093245
H      -1.14744463     2.18781194    -5.13246795
H      -0.18385331     1.35656792    -1.85975537
H      -1.17219782     2.79889728    -1.67475955
H      -1.88154244     1.19731021    -1.33294879
17 
# or7: geometry number 12. C2-C10 distance: 3.7 
C       1.13445773     2.84048054     1.23301088
C      -0.08611526     2.04480437     1.65248364
N       0.08184456     0.69274135     1.70894746
O      -1.14268774     2.57789029     1.92963578
H      -0.69013331     0.12733482     2.02097019
H       0.96033324     0.25114976     1.50887499
H       0.83125793     3.57178034     0.48519324
H       1.50458106     3.38911939     2.10077962
H       1.94161028     2.22572483     0.83400966
C      -1.16681121     1.75654373    -1.87441331
C      -1.60542259     1.63955024    -3.30584010
O      -0.77469483     2.31576348    -4.13775610
O      -2.56427953     1.03345802    -3.70561091
H      -1.11823664     2.19560276    -5.03714641
H      -0.15464532     1.36435874    -1.76443383
H      -1.14298983     2.80668810    -1.57943801
H      -1.85233445     1.20510103    -1.23762725
17 
# or7: geometry number 13. C2-C10 distance: 3.6 
C       1.13445773     2.84048054     1.23301088
C      -0.08611526     2.04480437     1.65248364
N       0.08184456     0.69274135     1.70894746
O      -1.14268774     2.57789029     1.92963578
H      -0.69013331     0.12733482     2.02097019
H       0.96033324     0.25114976     1.50887499
H       0.83125793     3.57178034     0.48519324
H       1.50458106     3.38911939     2.10077962
H       1.94161028     2.22572483     0.83400966
C      -1.13760321     1.76433456    -1.77909177
C      -1.57621459     1.64734107    -3.21051856
O      -0.74548683     2.32355431    -4.04243456
O      -2.53507153     1.04124885    -3.61028937
H      -1.08902864     2.20339359    -4.94182487
H      -0.12543732     1.37214957    -1.66911229
H      -1.11378183     2.81447893    -1.48411647
H      -1.82312645     1.21289186    -1.14230571
17 
# or7: geometry number 14. C2-C10 distance: 3.5 
C       1.13445773     2.84048054     1.23301088
C      -0.08611526     2.04480437     1.65248364
N       0.08184456     0.69274135     1.70894746
O      -1.14268774     2.57789029     1.92963578
H      -0.69013331     0.12733482     2.02097019
H       0.96033324     0.25114976     1.50887499
H       0.83125793     3.57178034     0.48519324
H       1.50458106     3.38911939     2.10077962
H       1.94161028     2.22572483     0.83400966
C      -1.10839521     1.77212539    -1.68377023
C      -1.54700659     1.65513190    -3.11519702
O      -0.71627883     2.33134514    -3.94711302
O      -2.50586353     1.04903968    -3.51496783
H      -1.05982064     2.21118442    -4.84650333
H      -0.09622932     1.37994040    -1.57379075
H      -1.08457383     2.82226976    -1.38879493
H      -1.79391845     1.22068269    -1.04698417
17 
# or7: geometry number 15. C2-C10 distance: 3.4 
C       1.13445773     2.84048054     1.23301088
C      -0.08611526     2.04480437     1.65248364
N       0.08184456     0.69274135     1.70894746
O      -1.14268774     2.57789029     1.92963578
H      -0.69013331     0.12733482     2.02097019
H       0.96033324     0.25114976     1.50887499
H       0.83125793     3.57178034     0.48519324
H       1.50458106     3.38911939     2.10077962
H       1.94161028     2.22572483     0.83400966
C      -1.07918721     1.77991622    -1.58844869
C      -1.51779859     1.66292273    -3.01987548
O      -0.68707083     2.33913597    -3.85179148
O      -2.47665553     1.05683051    -3.41964629
H      -1.03061264     2.21897525    -4.75118179
H      -0.06702132     1.38773123    -1.47846921
H      -1.05536583     2.83006059    -1.29347339
H      -1.76471045     1.22847352    -0.95166263
17 
# or7: geometry number 16. C2-C10 distance: 3.3 
C       1.13445773     2.84048054     1.23301088
C      -0.08611526     2.04480437     1.65248364
N       0.08184456     0.69274135     1.70894746
O      -1.14268774     2.57789029     1.92963578
H      -0.69013331     0.12733482     2.02097019
H       0.96033324     0.25114976     1.50887499
H       0.83125793     3.57178034     0.48519324
H       1.50458106     3.38911939     2.10077962
H       1.94161028     2.22572483     0.83400966
C      -1.04997921     1.78770705    -1.49312715
C      -1.48859059     1.67071356    -2.92455394
O      -0.65786283     2.34692680    -3.75646994
O      -2.44744753     1.06462134    -3.32432475
H      -1.00140464     2.22676608    -4.65586025
H      -0.03781332     1.39552206    -1.38314767
H      -1.02615783     2.83785142    -1.19815185
H      -1.73550245     1.23626435    -0.85634109
17 
# or7: geometry number 17. C2-C10 distance: 3.2 
C       1.13445773     2.84048054     1.23301088
C      -0.08611526     2.04480437     1.65248364
N       0.08184456     0.69274135     1.70894746
O      -1.14268774     2.57789029     1.92963578
H      -0.69013331     0.12733482     2.02097019
H       0.96033324     0.25114976     1.50887499
H       0.83125793     3.57178034     0.48519324
H       1.50458106     3.38911939     2.10077962
H       1.94161028     2.22572483     0.83400966
C      -1.02077121     1.79549787    -1.39780561
C      -1.45938259     1.67850438    -2.82923240
O      -0.62865483     2.35471762    -3.66114840
O      -2.41823953     1.07241216    -3.22900321
H      -0.97219664     2.23455690    -4.56053871
H      -0.00860532     1.40331288    -1.28782613
H      -0.99694983     2.84564224    -1.10283031
H      -1.70629445     1.24405517    -0.76101955
17 
# or7: geometry number 18. C2-C10 distance: 3.1 
C       1.13445773     2.84048054     1.23301088
C      -0.08611526     2.04480437     1.65248364
N       0.08184456     0.69274135     1.70894746
O      -1.14268774     2.57789029     1.92963578
H      -0.69013331     0.12733482     2.02097019
H       0.96033324     0.25114976     1.50887499
H       0.83125793     3.57178034     0.48519324
H       1.50458106     3.38911939     2.10077962
H       1.94161028     2.22572483     0.83400966
C      -0.99156321     1.80328870    -1.30248407
C      -1.43017459     1.68629521    -2.73391086
O      -0.59944683     2.36250845    -3.56582686
O      -2.38903153     1.08020299    -3.13368167
H      -0.94298864     2.24234773    -4.46521717
H       0.02060268     1.41110371    -1.19250459
H      -0.96774183     2.85343307    -1.00750877
H      -1.67708645     1.25184600    -0.66569801
17 
# or7: geometry number 19. C2-C10 distance: 3 
C       1.13445773     2.84048054     1.23301088
C      -0.08611526     2.04480437     1.65248364
N       0.08184456     0.69274135     1.70894746
O      -1.14268774     2.57789029     1.92963578
H      -0.69013331     0.12733482     2.02097019
H       0.96033324     0.25114976     1.50887499
H       0.83125793     3.57178034     0.48519324
H       1.50458106     3.38911939     2.10077962
H       1.94161028     2.22572483     0.83400966
C      -0.96235522     1.81107953    -1.20716253
C      -1.40096660     1.69408604    -2.63858932
O      -0.57023884     2.37029928    -3.47050532
O      -2.35982354     1.08799382    -3.03836013
H      -0.91378065     2.25013856    -4.36989563
H       0.04981067     1.41889454    -1.09718305
H      -0.93853384     2.86122390    -0.91218723
H      -1.64787846     1.25963683    -0.57037647
17 
# or7: geometry number 20. C2-C10 distance: 2.9 
C       1.13445773     2.84048054     1.23301088
C      -0.08611526     2.04480437     1.65248364
N       0.08184456     0.69274135     1.70894746
O      -1.14268774     2.57789029     1.92963578
H      -0.69013331     0.12733482     2.02097019
H       0.96033324     0.25114976     1.50887499
H       0.83125793     3.57178034     0.48519324
H       1.50458106     3.38911939     2.10077962
H       1.94161028     2.22572483     0.83400966
C      -0.93314722     1.81887036    -1.11184099
C      -1.37175860     1.70187687    -2.54326778
O      -0.54103084     2.37809011    -3.37518378
O      -2.33061554     1.09578465    -2.94303859
H      -0.88457265     2.25792939    -4.27457409
H       0.07901867     1.42668537    -1.00186151
H      -0.90932584     2.86901473    -0.81686569
H      -1.61867046     1.26742766    -0.47505493
17 
# or7: geometry number 21. C2-C10 distance: 2.85 
C       1.13445773     2.84048054     1.23301088
C      -0.08611526     2.04480437     1.65248364
N       0.08184456     0.69274135     1.70894746
O      -1.14268774     2.57789029     1.92963578
H      -0.69013331     0.12733482     2.02097019
H       0.96033324     0.25114976     1.50887499
H       0.83125793     3.57178034     0.48519324
H       1.50458106     3.38911939     2.10077962
H       1.94161028     2.22572483     0.83400966
C      -0.91854322     1.82276577    -1.06418022
C      -1.35715460     1.70577228    -2.49560701
O      -0.52642684     2.38198552    -3.32752301
O      -2.31601154     1.09968006    -2.89537782
H      -0.86996865     2.26182480    -4.22691332
H       0.09362267     1.43058078    -0.95420074
H      -0.89472184     2.87291014    -0.76920492
H      -1.60406646     1.27132307    -0.42739416
17 
# or7: geometry number 22. C2-C10 distance: 2.8 
C       1.13445773     2.84048054     1.23301088
C      -0.08611526     2.04480437     1.65248364
N       0.08184456     0.69274135     1.70894746
O      -1.14268774     2.57789029     1.92963578
H      -0.69013331     0.12733482     2.02097019
H       0.96033324     0.25114976     1.50887499
H       0.83125793     3.57178034     0.48519324
H       1.50458106     3.38911939     2.10077962
H       1.94161028     2.22572483     0.83400966
C      -0.90393922     1.82666119    -1.01651946
C      -1.34255060     1.70966770    -2.44794625
O      -0.51182284     2.38588094    -3.27986225
O      -2.30140754     1.10357548    -2.84771706
H      -0.85536465     2.26572022    -4.17925256
H       0.10822667     1.43447620    -0.90653998
H      -0.88011784     2.87680556    -0.72154416
H      -1.58946246     1.27521849    -0.37973340
17 
# or7: geometry number 23. C2-C10 distance: 2.75 
C       1.13445773     2.84048054     1.23301088
C      -0.08611526     2.04480437     1.65248364
N       0.08184456     0.69274135     1.70894746
O      -1.14268774     2.57789029     1.92963578
H      -0.69013331     0.12733482     2.02097019
H       0.96033324     0.25114976     1.50887499
H       0.83125793     3.57178034     0.48519324
H       1.50458106     3.38911939     2.10077962
H       1.94161028     2.22572483     0.83400966
C      -0.88933522     1.83055660    -0.96885869
C      -1.32794660     1.71356311    -2.40028548
O      -0.49721884     2.38977635    -3.23220148
O      -2.28680354     1.10747089    -2.80005629
H      -0.84076065     2.26961563    -4.13159179
H       0.12283067     1.43837161    -0.85887921
H      -0.86551384     2.88070097    -0.67388339
H      -1.57485846     1.27911390    -0.33207263
17 
# or7: geometry number 24. C2-C10 distance: 2.7 
C       1.13445773     2.84048054     1.23301088
C      -0.08611526     2.04480437     1.65248364
N       0.08184456     0.69274135     1.70894746
O      -1.14268774     2.57789029     1.92963578
H      -0.69013331     0.12733482     2.02097019
H       0.96033324     0.25114976     1.50887499
H       0.83125793     3.57178034     0.48519324
H       1.50458106     3.38911939     2.10077962
H       1.94161028     2.22572483     0.83400966
C      -0.87473122     1.83445201    -0.92119792
C      -1.31334260     1.71745852    -2.35262471
O      -0.48261484     2.39367176    -3.18454071
O      -2.27219954     1.11136630    -2.75239552
H      -0.82615665     2.27351104    -4.08393102
H       0.13743467     1.44226702    -0.81121844
H      -0.85090984     2.88459638    -0.62622262
H      -1.56025446     1.28300931    -0.28441186
17 
# or7: geometry number 25. C2-C10 distance: 2.65 
C       1.13445773     2.84048054     1.23301088
C      -0.08611526     2.04480437     1.65248364
N       0.08184456     0.69274135     1.70894746
O      -1.14268774     2.57789029     1.92963578
H      -0.69013331     0.12733482     2.02097019
H       0.96033324     0.25114976     1.50887499
H       0.83125793     3.57178034     0.48519324
H       1.50458106     3.38911939     2.10077962
H       1.94161028     2.22572483     0.83400966
C      -0.86012722     1.83834743    -0.87353715
C      -1.29873860     1.72135394    -2.30496394
O      -0.46801084     2.39756718    -3.13687994
O      -2.25759554     1.11526172    -2.70473475
H      -0.81155265     2.27740646    -4.03627025
H       0.15203867     1.44616244    -0.76355767
H      -0.83630584     2.88849180    -0.57856185
H      -1.54565046     1.28690473    -0.23675109
17 
# or7: geometry number 26. C2-C10 distance: 2.6 
C       1.13445773     2.84048054     1.23301088
C      -0.08611526     2.04480437     1.65248364
N       0.08184456     0.69274135     1.70894746
O      -1.14268774     2.57789029     1.92963578
H      -0.69013331     0.12733482     2.02097019
H       0.96033324     0.25114976     1.50887499
H       0.83125793     3.57178034     0.48519324
H       1.50458106     3.38911939     2.10077962
H       1.94161028     2.22572483     0.83400966
C      -0.84552322     1.84224284    -0.82587638
C      -1.28413460     1.72524935    -2.25730317
O      -0.45340684     2.40146259    -3.08921917
O      -2.24299154     1.11915713    -2.65707398
H      -0.79694865     2.28130187    -3.98860948
H       0.16664267     1.45005785    -0.71589690
H      -0.82170184     2.89238721    -0.53090108
H      -1.53104646     1.29080014    -0.18909032
17 
# or7: geometry number 27. C2-C10 distance: 2.55 
C       1.13445773     2.84048054     1.23301088
C      -0.08611526     2.04480437     1.65248364
N       0.08184456     0.69274135     1.70894746
O      -1.14268774     2.57789029     1.92963578
H      -0.69013331     0.12733482     2.02097019
H       0.96033324     0.25114976     1.50887499
H       0.83125793     3.57178034     0.48519324
H       1.50458106     3.38911939     2.10077962
H       1.94161028     2.22572483     0.83400966
C      -0.83091922     1.84613826    -0.77821561
C      -1.26953060     1.72914477    -2.20964240
O      -0.43880284     2.40535801    -3.04155840
O      -2.22838754     1.12305255    -2.60941321
H      -0.78234465     2.28519729    -3.94094871
H       0.18124667     1.45395327    -0.66823613
H      -0.80709784     2.89628263    -0.48324031
H      -1.51644246     1.29469556    -0.14142955
17 
# or7: geometry number 28. C2-C10 distance: 2.5 
C       1.13445773     2.84048054     1.23301088
C      -0.08611526     2.04480437     1.65248364
N       0.08184456     0.69274135     1.70894746
O      -1.14268774     2.57789029     1.92963578
H      -0.69013331     0.12733482     2.02097019
H       0.96033324     0.25114976     1.50887499
H       0.83125793     3.57178034     0.48519324
H       1.50458106     3.38911939     2.10077962
H       1.94161028     2.22572483     0.83400966
C      -0.81631522     1.85003367    -0.73055484
C      -1.25492660     1.73304018    -2.16198163
O      -0.42419884     2.40925342    -2.99389763
O      -2.21378354     1.12694796    -2.56175244
H      -0.76774065     2.28909270    -3.89328794
H       0.19585067     1.45784868    -0.62057536
H      -0.79249384     2.90017804    -0.43557954
H      -1.50183846     1.29859097    -0.09376878
17 
# or7: geometry number 29. C2-C10 distance: 2.45 
C       1.13445773     2.84048054     1.23301088
C      -0.08611526     2.04480437     1.65248364
N       0.08184456     0.69274135     1.70894746
O      -1.14268774     2.57789029     1.92963578
H      -0.69013331     0.12733482     2.02097019
H       0.96033324     0.25114976     1.50887499
H       0.83125793     3.57178034     0.48519324
H       1.50458106     3.38911939     2.10077962
H       1.94161028     2.22572483     0.83400966
C      -0.80171122     1.85392908    -0.68289407
C      -1.24032260     1.73693559    -2.11432086
O      -0.40959484     2.41314883    -2.94623686
O      -2.19917954     1.13084337    -2.51409167
H      -0.75313665     2.29298811    -3.84562717
H       0.21045467     1.46174409    -0.57291459
H      -0.77788984     2.90407345    -0.38791877
H      -1.48723446     1.30248638    -0.04610801
17 
# or7: geometry number 30. C2-C10 distance: 2.4 
C       1.13445773     2.84048054     1.23301088
C      -0.08611526     2.04480437     1.65248364
N       0.08184456     0.69274135     1.70894746
O      -1.14268774     2.57789029     1.92963578
H      -0.69013331     0.12733482     2.02097019
H       0.96033324     0.25114976     1.50887499
H       0.83125793     3.57178034     0.48519324
H       1.50458106     3.38911939     2.10077962
H       1.94161028     2.22572483     0.83400966
C      -0.78710722     1.85782450    -0.63523330
C      -1.22571860     1.74083101    -2.06666009
O      -0.39499084     2.41704425    -2.89857609
O      -2.18457554     1.13473879    -2.46643090
H      -0.73853265     2.29688353    -3.79796640
H       0.22505867     1.46563951    -0.52525382
H      -0.76328584     2.90796887    -0.34025800
H      -1.47263046     1.30638180     0.00155276
